
              Welcome to ANSYS Fluent 2020 R2

              Copyright 1987-2020 ANSYS, Inc. All Rights Reserved.
              Unauthorized use, distribution or duplication is prohibited.
              This product is subject to U.S. laws governing export and re-export.
              For full Legal Notice, see documentation.

Build Time: May 29 2020 07:26:53 EDT  Build Id: 10176  
 

*********************************************
Info: Your license enables 4-way parallel execution.
For faster simulations, please start the application with the appropriate parallel options.
*********************************************

Host spawning Node 0 on machine "wenzheshang" (win64).

-------------------------------------------------------------------------------
ID    Hostname     Core  O.S.         PID    Vendor                     
-------------------------------------------------------------------------------
n0    wenzheshang  1/12  Windows-x64  18608  Intel(R) Core(TM) i7-8750H 
host  wenzheshang        Windows-x64  14112  Intel(R) Core(TM) i7-8750H 

MPI Option Selected: intel
-------------------------------------------------------------------------------

Cleanup script file is f:\\Thinking\\program\\BELab1.0\\Workdata\\Fluent_Python\\2023-02-09_20-52\\cleanup-fluent-wenzheshang-14112.bat

Opening wrapper library "F:\\ANASYS\\ANSYS Inc\\v202\\fluent/../commonfiles/AAS/bin/winx64/COWrapper.dll"...

Done.
Loading "F:/ANASYS/ANSYS Inc/v202/fluent/../commonfiles/AAS/bin/winx64/cowrapper.scm"
Done.
(define (aaslistener-func iter time-step) (display "<aaslistener> 
") '() )aaslistener-func
(define (aaslistener-func-freq) 1)aaslistener-func-freq
(register-solution-monitor 'aaslistener-func aaslistener-func #f aaslistener-func-freq)monitor-lambdas
(rpsetvar 'co-simulation/ior_ICoFluentUnit "IOR:010000002000000049444c3a4141535f434f5242412f49436f466c75656e74556e69743a312e3000010000000000000070000000010102000f0000003137322e32332e3139342e313835000067f700001b00000014010f005253549bece463e3fd09000100000001000000020000004102000000000000000800000001000000004f41540100000018000000010000000100010001000000010001050901010000000000")co-simulation/ior_icofluentunit
(rp-var-define 'co-simulation/ior_ExceptionHolder "IOR:010000003000000049444c3a4141535f434f5242412f466c75656e742f49466c75656e74457863657074696f6e486f6c6465723a312e3000010000000000000070000000010102000f0000003137322e32332e3139342e313835000065f700001b00000014010f005253549bece4639de909000000000001000000010000000002000000000000000800000001012c3a004f4154010000001800000001012c3a0100010001000000010001050901010000000000" 'string #f)co-simulation/ior_exceptionholder
(rpsetvar 'co-simulation/ior_ExceptionHolder "IOR:010000003000000049444c3a4141535f434f5242412f466c75656e742f49466c75656e74457863657074696f6e486f6c6465723a312e3000010000000000000070000000010102000f0000003137322e32332e3139342e313835000065f700001b00000014010f005253549bece4639de909000000000001000000010000000002000000000000000800000001012c3a004f4154010000001800000001012c3a0100010001000000010001050901010000000000")co-simulation/ior_exceptionholder

> 
Reading "F:/Thinking/program/middle_platform/prefile/test.msh"...

Buffering for file scan...

    7905 nodes, binary.
     416 nodes, binary.
   16016 2D interior faces, zone  1, binary.
      52 2D wall faces, zone  5, binary.
     104 2D wall faces, zone  6, binary.
      52 2D wall faces, zone  7, binary.
     104 2D wall faces, zone  8, binary.
      52 2D velocity-inlet faces, zone  9, binary.
      52 2D pressure-outlet faces, zone 10, binary.
    8112 quadrilateral cells, zone  2, binary.

Building...
     mesh
     materials,
     interface,
     domains,
     zones,
	outlet
	inlet
	wall4
	wall3
	wall2
	wall1
	surface_body
	interior-surface_body
     parallel,
Done.

Preparing mesh for display...
Done.
