
              Welcome to ANSYS Fluent 2020 R2

              Copyright 1987-2020 ANSYS, Inc. All Rights Reserved.
              Unauthorized use, distribution or duplication is prohibited.
              This product is subject to U.S. laws governing export and re-export.
              For full Legal Notice, see documentation.

Build Time: May 29 2020 07:22:43 EDT  Build Id: 10176  
 

*********************************************
Info: Your license enables 4-way parallel execution.
For faster simulations, please start the application with the appropriate parallel options.
*********************************************

Host spawning Node 0 on machine "wenzheshang" (win64).

-------------------------------------------------------------------------------
ID    Hostname     Core  O.S.         PID    Vendor                     
-------------------------------------------------------------------------------
n0    wenzheshang  1/12  Windows-x64  84800  Intel(R) Core(TM) i7-8750H 
host  wenzheshang        Windows-x64  81356  Intel(R) Core(TM) i7-8750H 

MPI Option Selected: intel
-------------------------------------------------------------------------------

Cleanup script file is f:\\Thinking\\program\\BELab1.0\\Workdata\\Fluent_Python\\2023-03-04_17-23\\cleanup-fluent-wenzheshang-81356.bat

Opening wrapper library "F:\\ANASYS\\ANSYS Inc\\v202\\fluent/../commonfiles/AAS/bin/winx64/COWrapper.dll"...

Done.
Loading "F:/ANASYS/ANSYS Inc/v202/fluent/../commonfiles/AAS/bin/winx64/cowrapper.scm"
Done.
(define (aaslistener-func iter time-step) (display "<aaslistener> 
") '() )aaslistener-func
(define (aaslistener-func-freq) 1)aaslistener-func-freq
(register-solution-monitor 'aaslistener-func aaslistener-func #f aaslistener-func-freq)monitor-lambdas
(rpsetvar 'co-simulation/ior_ICoFluentUnit "IOR:010000002000000049444c3a4141535f434f5242412f49436f466c75656e74556e69743a312e3000020000000000000070000000010102000f0000003137322e32332e3139342e3138350000b00500001b00000014010f00525354420e036499580d000100000001000000020000000002000000000000000800000001000000004f41540100000018000000010052000100010001000000010001050901010000000000000000006c000000010102000c0000003139322e3136382e302e3100b00500001b00000014010f00525354420e036499580d000100000001000000020000000202000000000000000800000001000000004f41540100000018000000010000000100010001000000010001050901010000000000")co-simulation/ior_icofluentunit
(rp-var-define 'co-simulation/ior_ExceptionHolder "IOR:010000003000000049444c3a4141535f434f5242412f466c75656e742f49466c75656e74457863657074696f6e486f6c6465723a312e3000020000000000000070000000010102000f0000003137322e32332e3139342e3138350000ae0500001b00000014010f00525354420e0364b0540d000000000001000000010000000002000000000000000800000001011961004f41540100000018000000010119610100010001000000010001050901010000000000000000006c000000010102000c0000003139322e3136382e302e3100ae0500001b00000014010f00525354420e0364b0540d000000000001000000010000000102000000000000000800000001011961004f41540100000018000000010119610100010001000000010001050901010000000000" 'string #f)co-simulation/ior_exceptionholder
(rpsetvar 'co-simulation/ior_ExceptionHolder "IOR:010000003000000049444c3a4141535f434f5242412f466c75656e742f49466c75656e74457863657074696f6e486f6c6465723a312e3000020000000000000070000000010102000f0000003137322e32332e3139342e3138350000ae0500001b00000014010f00525354420e0364b0540d000000000001000000010000000002000000000000000800000001011961004f41540100000018000000010119610100010001000000010001050901010000000000000000006c000000010102000c0000003139322e3136382e302e3100ae0500001b00000014010f00525354420e0364b0540d000000000001000000010000000102000000000000000800000001011961004f41540100000018000000010119610100010001000000010001050901010000000000")co-simulation/ior_exceptionholder

> 
Reading "F:/Thinking/mesh/vadilation/roomesh.msh"...

Buffering for file scan...

   59319 nodes, binary.
    9602 nodes, binary.
  187200 quadrilateral interior faces, zone  1, binary.
    1600 quadrilateral wall faces, zone  5, binary.
    1600 quadrilateral wall faces, zone  6, binary.
     160 quadrilateral velocity-inlet faces, zone  7, binary.
     160 quadrilateral pressure-outlet faces, zone  8, binary.
    1600 quadrilateral wall faces, zone  9, binary.
    1600 quadrilateral wall faces, zone 10, binary.
    1440 quadrilateral wall faces, zone 11, binary.
    1440 quadrilateral wall faces, zone 12, binary.
   64000 hexahedral cells, zone  4, binary.

Building...
     mesh
     materials,
     interface,
     domains,
     zones,
	wall-front
	wall-back
	wall-left
	wall-right
	outlet
	inlet
	wall-floor
	wall-ceiling
	cell-fuild
	interior-cell-fuild
     parallel,
Done.

Preparing mesh for display...
Done.
/define/model viscous ke-rng yes/define/model energy yes no no no no/define/operating-conditions gravity yes 0 9.8/define/boundary/wall (wall-ceiling wall-floor wall-right wall-left wall-back wall-front)
wall-front 0 no 0 no yes temperature no 283.15/define/boundary/wall (wall-ceiling wall-floor wall-right wall-left wall-back wall-front)
wall-back 0 no 0 no yes temperature no 283.15/define/boundary/wall (wall-ceiling wall-floor wall-right wall-left wall-back wall-front)
wall-left 0 no 0 no yes temperature no 283.15/define/boundary/wall (wall-ceiling wall-floor wall-right wall-left wall-back wall-front)
wall-right 0 no 0 no yes temperature no 283.15/define/boundary/wall (wall-ceiling wall-floor wall-right wall-left wall-back wall-front)
wall-ceiling 0 no 0 no yes temperature no 283.15/define/boundary/wall (wall-ceiling wall-floor wall-right wall-left wall-back wall-front)
wall-floor 0 no 0 no yes temperature no 303.15/define/boundary/zone-type outlet outflow/define/boundary/velocity-inlet (inlet)
inlet no no yes yes no 0.8333333333333334 no 0 no 303.15 no no yes 5 10/solve/initialize/compute-defaults/all-zonessolve iterate 100
Initialize using the hybrid initialization method.

Checking case topology... 
-This case has both inlets & outlets 
-Pressure information is not available at the boundaries.
 Case will be initialized with constant pressure

	iter		scalar-0

	1		1.000000e+00
	2		1.017806e-05
	3		9.829491e-07
	4		9.823473e-08
	5		9.216920e-09
	6		8.672313e-10
	7		8.151888e-11
	8		7.637622e-12
	9		8.211758e-13
	10		9.202023e-14

Hybrid initialization is done.
<aaslistener> 

  iter  continuity  x-velocity  y-velocity  z-velocity      energy           k     epsilon     time/iter
<aaslistener> 
     1  1.0000e+00  8.5995e-02  6.5535e-02  4.5683e-05  5.2082e-04  1.3400e-01  1.5051e-01  0:01:39   99
<aaslistener> 
     2  6.2589e-01  5.6131e-02  3.6475e-02  1.0947e-04  6.0270e-04  7.7407e-02  1.0479e-01  0:01:58   98
<aaslistener> 
     3  5.1916e-01  4.0420e-02  2.3503e-02  1.4087e-04  5.0747e-04  6.0963e-02  1.2843e-01  0:01:53   97
<aaslistener> 
     4  6.3899e-01  2.9134e-02  1.5002e-02  1.9156e-04  4.1526e-04  5.3634e-02  1.6383e-01  0:01:29   96
<aaslistener> 
     5  7.4335e-01  2.0858e-02  1.0754e-02  2.4292e-04  3.2713e-04  4.9574e-02  1.8198e-01  0:01:30   95
<aaslistener> 
     6  7.2645e-01  1.5079e-02  8.6029e-03  2.9787e-04  2.5796e-04  4.2667e-02  1.6795e-01  0:01:30   94
<aaslistener> 
     7  6.6918e-01  1.0982e-02  7.2042e-03  3.4621e-04  2.1319e-04  3.5983e-02  1.4003e-01  0:01:30   93
<aaslistener> 
     8  6.1740e-01  8.2849e-03  6.1299e-03  3.8849e-04  1.8086e-04  2.8681e-02  1.0623e-01  0:01:29   92
<aaslistener> 
     9  5.4962e-01  6.5340e-03  5.1358e-03  4.2594e-04  1.5442e-04  2.1659e-02  7.7318e-02  0:01:29   91
<aaslistener> 
    10  4.9792e-01  5.4706e-03  4.1845e-03  4.5782e-04  1.3322e-04  1.5894e-02  5.5872e-02  0:01:28   90
<aaslistener> 
    11  4.4983e-01  4.6978e-03  3.3499e-03  4.8733e-04  1.1592e-04  1.1691e-02  3.9937e-02  0:01:28   89

  iter  continuity  x-velocity  y-velocity  z-velocity      energy           k     epsilon     time/iter
<aaslistener> 
    12  4.1410e-01  4.0625e-03  2.7102e-03  5.1640e-04  1.0071e-04  8.9098e-03  2.7975e-02  0:01:27   88
<aaslistener> 
    13  3.8013e-01  3.4985e-03  2.3686e-03  5.4325e-04  8.7696e-05  7.0005e-03  1.9084e-02  0:01:09   87
<aaslistener> 
    14  3.4465e-01  2.9956e-03  2.2284e-03  5.7150e-04  7.6758e-05  6.0502e-03  1.5237e-02  0:01:12   86
<aaslistener> 
    15  3.2429e-01  2.5365e-03  2.1315e-03  6.0080e-04  6.7498e-05  5.6760e-03  1.6749e-02  0:01:14   85
<aaslistener> 
    16  3.0555e-01  2.1621e-03  2.0578e-03  6.3126e-04  5.9523e-05  5.3687e-03  1.8454e-02  0:01:15   84
<aaslistener> 
    17  2.8704e-01  1.8567e-03  1.9714e-03  6.5797e-04  5.3098e-05  5.0624e-03  1.9540e-02  0:01:16   83
<aaslistener> 
    18  2.7060e-01  1.6329e-03  1.8625e-03  6.8057e-04  4.7681e-05  4.7408e-03  1.9823e-02  0:01:00   82
<aaslistener> 
    19  2.5458e-01  1.4770e-03  1.7370e-03  6.9704e-04  4.2954e-05  4.4111e-03  1.9257e-02  0:01:04   81
<aaslistener> 
    20  2.3961e-01  1.3721e-03  1.6047e-03  7.0964e-04  3.8952e-05  4.1201e-03  1.8046e-02  0:01:06   80
<aaslistener> 
    21  2.2601e-01  1.3038e-03  1.4728e-03  7.1534e-04  3.5360e-05  3.9043e-03  1.6478e-02  0:01:08   79
<aaslistener> 
    22  2.1381e-01  1.2542e-03  1.3525e-03  7.1376e-04  3.2066e-05  3.8067e-03  1.4906e-02  0:01:09   78

  iter  continuity  x-velocity  y-velocity  z-velocity      energy           k     epsilon     time/iter
<aaslistener> 
    23  2.0291e-01  1.2178e-03  1.2496e-03  7.0763e-04  2.9006e-05  3.7731e-03  1.3934e-02  0:00:55   77
<aaslistener> 
    24  1.9269e-01  1.1839e-03  1.1619e-03  6.9611e-04  2.6253e-05  3.7223e-03  1.3244e-02  0:00:58   76
<aaslistener> 
    25  1.8325e-01  1.1459e-03  1.0857e-03  6.7899e-04  2.3992e-05  3.6265e-03  1.2547e-02  0:01:01   75
<aaslistener> 
    26  1.7503e-01  1.1074e-03  1.0181e-03  6.5651e-04  2.2184e-05  3.4886e-03  1.1736e-02  0:01:03   74
<aaslistener> 
    27  1.6716e-01  1.0688e-03  9.5945e-04  6.2886e-04  2.0651e-05  3.3144e-03  1.0847e-02  0:01:04   73
<aaslistener> 
    28  1.5990e-01  1.0291e-03  9.0752e-04  5.9786e-04  1.9321e-05  3.1104e-03  9.9068e-03  0:01:05   72
<aaslistener> 
    29  1.5193e-01  9.9059e-04  8.6259e-04  5.6621e-04  1.8126e-05  2.8948e-03  8.9420e-03  0:00:51   71
<aaslistener> 
    30  1.4366e-01  9.5386e-04  8.2896e-04  5.3811e-04  1.7069e-05  2.6773e-03  8.0019e-03  0:00:55   70
<aaslistener> 
    31  1.3622e-01  9.2390e-04  8.0965e-04  5.1547e-04  1.6161e-05  2.4718e-03  7.1446e-03  0:00:57   69
<aaslistener> 
    32  1.2979e-01  9.0374e-04  8.0500e-04  4.9827e-04  1.5504e-05  2.3013e-03  6.4535e-03  0:00:58   68
<aaslistener> 
    33  1.2649e-01  8.9310e-04  8.1327e-04  4.8744e-04  1.5160e-05  2.1853e-03  6.0258e-03  0:00:59   67

  iter  continuity  x-velocity  y-velocity  z-velocity      energy           k     epsilon     time/iter
<aaslistener> 
    34  1.2593e-01  8.9020e-04  8.3389e-04  4.8350e-04  1.4996e-05  2.1266e-03  5.9055e-03  0:01:00   66
<aaslistener> 
    35  1.2716e-01  8.9524e-04  8.6475e-04  4.8561e-04  1.4988e-05  2.1126e-03  6.0483e-03  0:00:47   65
<aaslistener> 
    36  1.3060e-01  9.0817e-04  9.0267e-04  4.9333e-04  1.5122e-05  2.1364e-03  6.3691e-03  0:00:50   64
<aaslistener> 
    37  1.3563e-01  9.2635e-04  9.4697e-04  5.1014e-04  1.5370e-05  2.1842e-03  6.7706e-03  0:00:52   63
<aaslistener> 
    38  1.4137e-01  9.4844e-04  9.9294e-04  5.3459e-04  1.5681e-05  2.2511e-03  7.2004e-03  0:00:53   62
<aaslistener> 
    39  1.4853e-01  9.7512e-04  1.0406e-03  5.6553e-04  1.6000e-05  2.3208e-03  7.6103e-03  0:00:54   61
<aaslistener> 
    40  1.5700e-01  1.0062e-03  1.0903e-03  5.9920e-04  1.6345e-05  2.3992e-03  7.9983e-03  0:00:43   60
<aaslistener> 
    41  1.6600e-01  1.0432e-03  1.1403e-03  6.3361e-04  1.6676e-05  2.4928e-03  8.4419e-03  0:00:45   59
<aaslistener> 
    42  1.7572e-01  1.0860e-03  1.1843e-03  6.6826e-04  1.7053e-05  2.5963e-03  8.8885e-03  0:00:47   58
<aaslistener> 
    43  1.8530e-01  1.1315e-03  1.2265e-03  7.0249e-04  1.7445e-05  2.6867e-03  9.2629e-03  0:00:49   57
<aaslistener> 
    44  1.9513e-01  1.1850e-03  1.2681e-03  7.3968e-04  1.7864e-05  2.7708e-03  9.5343e-03  0:00:49   56

  iter  continuity  x-velocity  y-velocity  z-velocity      energy           k     epsilon     time/iter
<aaslistener> 
    45  2.0383e-01  1.2423e-03  1.3141e-03  7.7915e-04  1.8341e-05  2.8712e-03  9.8482e-03  0:00:50   55
<aaslistener> 
    46  2.1157e-01  1.3073e-03  1.3594e-03  8.1854e-04  1.8869e-05  2.9809e-03  1.0218e-02  0:00:39   54
<aaslistener> 
    47  2.1779e-01  1.3809e-03  1.4093e-03  8.5716e-04  1.9485e-05  3.0823e-03  1.0508e-02  0:00:41   53
<aaslistener> 
    48  2.2511e-01  1.4613e-03  1.4659e-03  9.0051e-04  2.0093e-05  3.1881e-03  1.0673e-02  0:00:43   52
<aaslistener> 
    49  2.3168e-01  1.5462e-03  1.5284e-03  9.4892e-04  2.0802e-05  3.3100e-03  1.0787e-02  0:00:44   51
<aaslistener> 
    50  2.3888e-01  1.6338e-03  1.5978e-03  9.9698e-04  2.1568e-05  3.4529e-03  1.0974e-02  0:00:44   50
<aaslistener> 
    51  2.4570e-01  1.7262e-03  1.6779e-03  1.0400e-03  2.2350e-05  3.6034e-03  1.1178e-02  0:00:35   49
<aaslistener> 
    52  2.5122e-01  1.8157e-03  1.7642e-03  1.0777e-03  2.3189e-05  3.7564e-03  1.1425e-02  0:00:37   48
<aaslistener> 
    53  2.5624e-01  1.9005e-03  1.8534e-03  1.1080e-03  2.3928e-05  3.9127e-03  1.1716e-02  0:00:38   47
<aaslistener> 
    54  2.5959e-01  1.9793e-03  1.9406e-03  1.1298e-03  2.4603e-05  4.0654e-03  1.2038e-02  0:00:39   46
<aaslistener> 
    55  2.6187e-01  2.0528e-03  2.0257e-03  1.1380e-03  2.5219e-05  4.2042e-03  1.2391e-02  0:00:40   45

  iter  continuity  x-velocity  y-velocity  z-velocity      energy           k     epsilon     time/iter
<aaslistener> 
    56  2.6236e-01  2.1223e-03  2.1028e-03  1.1378e-03  2.5814e-05  4.3444e-03  1.2766e-02  0:00:40   44
<aaslistener> 
    57  2.6207e-01  2.1825e-03  2.1714e-03  1.1320e-03  2.6360e-05  4.4709e-03  1.2999e-02  0:00:31   43
<aaslistener> 
    58  2.6088e-01  2.2320e-03  2.2235e-03  1.1271e-03  2.6822e-05  4.5610e-03  1.3120e-02  0:00:33   42
<aaslistener> 
    59  2.5861e-01  2.2762e-03  2.2401e-03  1.1263e-03  2.7170e-05  4.6154e-03  1.3127e-02  0:00:34   41
<aaslistener> 
    60  2.5775e-01  2.3056e-03  2.2231e-03  1.1410e-03  2.7543e-05  4.6657e-03  1.3245e-02  0:00:34   40
<aaslistener> 
    61  2.5908e-01  2.3066e-03  2.1967e-03  1.1599e-03  2.7715e-05  4.7138e-03  1.3542e-02  0:00:35   39
<aaslistener> 
    62  2.5513e-01  2.2879e-03  2.1629e-03  1.1827e-03  2.7593e-05  4.7537e-03  1.3855e-02  0:00:35   38
<aaslistener> 
    63  2.5369e-01  2.2430e-03  2.1255e-03  1.2079e-03  2.7408e-05  4.7225e-03  1.3950e-02  0:00:27   37
<aaslistener> 
    64  2.5355e-01  2.1798e-03  2.0772e-03  1.2256e-03  2.7112e-05  4.5806e-03  1.3594e-02  0:00:28   36
<aaslistener> 
    65  2.5026e-01  2.1050e-03  2.0261e-03  1.2267e-03  2.6700e-05  4.3440e-03  1.2904e-02  0:00:29   35
<aaslistener> 
    66  2.4470e-01  2.0266e-03  1.9652e-03  1.2158e-03  2.6263e-05  4.1312e-03  1.2241e-02  0:00:29   34

  iter  continuity  x-velocity  y-velocity  z-velocity      energy           k     epsilon     time/iter
<aaslistener> 
    67  2.3937e-01  1.9596e-03  1.9087e-03  1.1948e-03  2.5749e-05  4.0110e-03  1.2098e-02  0:00:29   33
<aaslistener> 
    68  2.3579e-01  1.9048e-03  1.8621e-03  1.1710e-03  2.5172e-05  3.9243e-03  1.2320e-02  0:00:23   32
<aaslistener> 
    69  2.3190e-01  1.8619e-03  1.8283e-03  1.1497e-03  2.4485e-05  3.8389e-03  1.2416e-02  0:00:24   31
<aaslistener> 
    70  2.3083e-01  1.8286e-03  1.8078e-03  1.1308e-03  2.3771e-05  3.7686e-03  1.2339e-02  0:00:24   30
<aaslistener> 
    71  2.3311e-01  1.8002e-03  1.7915e-03  1.1198e-03  2.2935e-05  3.7462e-03  1.2322e-02  0:00:25   29
<aaslistener> 
    72  2.3625e-01  1.7728e-03  1.7740e-03  1.1137e-03  2.2113e-05  3.7271e-03  1.2297e-02  0:00:25   28
<aaslistener> 
    73  2.4071e-01  1.7432e-03  1.7545e-03  1.1063e-03  2.1211e-05  3.6893e-03  1.2303e-02  0:00:24   27
<aaslistener> 
    74  2.4516e-01  1.7020e-03  1.7304e-03  1.0921e-03  2.0290e-05  3.6251e-03  1.2249e-02  0:00:24   26
<aaslistener> 
    75  2.4873e-01  1.6541e-03  1.7033e-03  1.0679e-03  1.9433e-05  3.5567e-03  1.2188e-02  0:00:18   25
<aaslistener> 
    76  2.5051e-01  1.6021e-03  1.6744e-03  1.0389e-03  1.8637e-05  3.4773e-03  1.1998e-02  0:00:19   24
<aaslistener> 
    77  2.5011e-01  1.5520e-03  1.6495e-03  1.0061e-03  1.7894e-05  3.4364e-03  1.1687e-02  0:00:19   23

  iter  continuity  x-velocity  y-velocity  z-velocity      energy           k     epsilon     time/iter
<aaslistener> 
    78  2.4641e-01  1.5072e-03  1.6401e-03  9.7529e-04  1.7239e-05  3.4352e-03  1.1353e-02  0:00:19   22
<aaslistener> 
    79  2.4025e-01  1.4646e-03  1.6377e-03  9.5015e-04  1.6650e-05  3.4325e-03  1.1070e-02  0:00:19   21
<aaslistener> 
    80  2.3510e-01  1.4280e-03  1.6334e-03  9.3022e-04  1.6114e-05  3.4048e-03  1.0728e-02  0:00:14   20
<aaslistener> 
    81  2.2864e-01  1.3978e-03  1.6266e-03  9.1849e-04  1.5651e-05  3.3765e-03  1.0450e-02  0:00:15   19
<aaslistener> 
    82  2.2347e-01  1.3843e-03  1.6238e-03  9.1150e-04  1.5224e-05  3.3643e-03  1.0397e-02  0:00:15   18
<aaslistener> 
    83  2.1820e-01  1.3853e-03  1.6298e-03  9.1324e-04  1.4830e-05  3.3411e-03  1.0446e-02  0:00:15   17
<aaslistener> 
    84  2.1350e-01  1.3972e-03  1.6375e-03  9.2630e-04  1.4468e-05  3.3341e-03  1.0627e-02  0:00:14   16
<aaslistener> 
    85  2.1061e-01  1.4119e-03  1.6432e-03  9.4189e-04  1.4180e-05  3.3504e-03  1.0979e-02  0:00:14   15
<aaslistener> 
    86  2.1036e-01  1.4210e-03  1.6414e-03  9.4773e-04  1.3936e-05  3.3530e-03  1.1417e-02  0:00:13   14
<aaslistener> 
    87  2.1092e-01  1.4162e-03  1.6277e-03  9.3949e-04  1.3714e-05  3.3389e-03  1.1782e-02  0:00:10   13
<aaslistener> 
    88  2.1176e-01  1.3958e-03  1.5936e-03  9.1413e-04  1.3482e-05  3.3147e-03  1.2014e-02  0:00:10   12

  iter  continuity  x-velocity  y-velocity  z-velocity      energy           k     epsilon     time/iter
<aaslistener> 
    89  2.1233e-01  1.3584e-03  1.5468e-03  8.8057e-04  1.3299e-05  3.2829e-03  1.2093e-02  0:00:09   11
<aaslistener> 
    90  2.0951e-01  1.3057e-03  1.4878e-03  8.4200e-04  1.3118e-05  3.2287e-03  1.1994e-02  0:00:09   10
<aaslistener> 
    91  2.0492e-01  1.2442e-03  1.4350e-03  8.0516e-04  1.2900e-05  3.1378e-03  1.1708e-02  0:00:08    9
<aaslistener> 
    92  1.9984e-01  1.1791e-03  1.3809e-03  7.7695e-04  1.2608e-05  3.0315e-03  1.1253e-02  0:00:07    8
<aaslistener> 
    93  1.9404e-01  1.1154e-03  1.3356e-03  7.5732e-04  1.2342e-05  2.9047e-03  1.0609e-02  0:00:07    7
<aaslistener> 
    94  1.8812e-01  1.0583e-03  1.2933e-03  7.4101e-04  1.2065e-05  2.7706e-03  9.8781e-03  0:00:06    6
<aaslistener> 
    95  1.8235e-01  1.0167e-03  1.2547e-03  7.2733e-04  1.1825e-05  2.6356e-03  9.0591e-03  0:00:04    5
<aaslistener> 
    96  1.7754e-01  9.9039e-04  1.2189e-03  7.1261e-04  1.1492e-05  2.5022e-03  8.2179e-03  0:00:03    4
<aaslistener> 
    97  1.7314e-01  9.7458e-04  1.1826e-03  6.9539e-04  1.1130e-05  2.3706e-03  7.4323e-03  0:00:03    3
<aaslistener> 
    98  1.6973e-01  9.6895e-04  1.1445e-03  6.7927e-04  1.0845e-05  2.2408e-03  6.7238e-03  0:00:02    2
<aaslistener> 
    99  1.6602e-01  9.7271e-04  1.1070e-03  6.6346e-04  1.0544e-05  2.1212e-03  6.1436e-03  0:00:01    1

  iter  continuity  x-velocity  y-velocity  z-velocity      energy           k     epsilon     time/iter
<aaslistener> 
   100  1.6365e-01  9.8232e-04  1.0710e-03  6.4786e-04  1.0292e-05  2.0335e-03  5.7821e-03  0:00:00    0
/define/boundary/velocity-inlet (inlet)
inlet no no yes yes no 0.8333333333333334 no 0 no 283.15 no no yes 5 10/solve/initialize/compute-defaults/all-zonessolve iterate 100<aaslistener> 

  iter  continuity  x-velocity  y-velocity  z-velocity      energy           k     epsilon     time/iter
<aaslistener> 
   100  1.6365e-01  9.8232e-04  1.0710e-03  6.4786e-04  1.0292e-05  2.0335e-03  5.7821e-03  0:01:32  100
<aaslistener> 
   101  1.6282e-01  9.9600e-04  1.0412e-03  6.3365e-04  2.6371e-04  1.9805e-03  5.5634e-03  0:01:33   99
<aaslistener> 
   102  1.6188e-01  1.0097e-03  1.0159e-03  6.2404e-04  2.4402e-04  1.9527e-03  5.4370e-03  0:01:33   98
<aaslistener> 
   103  1.6073e-01  1.0267e-03  9.9462e-04  6.1858e-04  2.1561e-04  1.9461e-03  5.3772e-03  0:01:14   97
<aaslistener> 
   104  1.5933e-01  1.0450e-03  9.7938e-04  6.1418e-04  1.8173e-04  1.9508e-03  5.3381e-03  0:01:18   96
<aaslistener> 
   105  1.5773e-01  1.0621e-03  9.7191e-04  6.1063e-04  1.4699e-04  1.9682e-03  5.3159e-03  0:01:20   95
<aaslistener> 
   106  1.5541e-01  1.0789e-03  9.7240e-04  6.0595e-04  1.1655e-04  2.0027e-03  5.3237e-03  0:01:22   94
<aaslistener> 
   107  1.5366e-01  1.0968e-03  9.8137e-04  6.0200e-04  9.2407e-05  2.0612e-03  5.4414e-03  0:01:24   93
<aaslistener> 
   108  1.5244e-01  1.1202e-03  9.9390e-04  6.0114e-04  7.4888e-05  2.1377e-03  5.7139e-03  0:01:25   92
<aaslistener> 
   109  1.5175e-01  1.1471e-03  1.0075e-03  6.0272e-04  6.3329e-05  2.2291e-03  6.1079e-03  0:01:25   91
<aaslistener> 
   110  1.5190e-01  1.1751e-03  1.0236e-03  6.0805e-04  5.6388e-05  2.3333e-03  6.5792e-03  0:01:25   90

  iter  continuity  x-velocity  y-velocity  z-velocity      energy           k     epsilon     time/iter
<aaslistener> 
   111  1.5251e-01  1.2027e-03  1.0427e-03  6.1740e-04  5.2654e-05  2.4400e-03  7.0230e-03  0:01:25   89
<aaslistener> 
   112  1.5416e-01  1.2294e-03  1.0637e-03  6.3172e-04  5.0901e-05  2.5491e-03  7.4306e-03  0:01:08   88
<aaslistener> 
   113  1.5678e-01  1.2549e-03  1.0849e-03  6.4925e-04  5.0004e-05  2.6553e-03  7.8167e-03  0:01:11   87
<aaslistener> 
   114  1.5891e-01  1.2754e-03  1.1089e-03  6.6538e-04  4.9283e-05  2.7445e-03  8.1878e-03  0:01:13   86
<aaslistener> 
   115  1.6089e-01  1.2911e-03  1.1325e-03  6.7814e-04  4.8400e-05  2.8048e-03  8.4590e-03  0:01:15   85
<aaslistener> 
   116  1.6236e-01  1.2998e-03  1.1533e-03  6.8552e-04  4.7272e-05  2.8303e-03  8.6292e-03  0:01:16   84
<aaslistener> 
   117  1.6270e-01  1.3029e-03  1.1682e-03  6.8576e-04  4.5791e-05  2.8285e-03  8.7207e-03  0:01:00   83
<aaslistener> 
   118  1.6313e-01  1.2982e-03  1.1714e-03  6.8097e-04  4.4093e-05  2.8098e-03  8.7332e-03  0:01:04   82
<aaslistener> 
   119  1.6301e-01  1.2837e-03  1.1654e-03  6.7561e-04  4.2366e-05  2.7835e-03  8.6958e-03  0:01:07   81
<aaslistener> 
   120  1.6304e-01  1.2633e-03  1.1508e-03  6.7620e-04  4.0780e-05  2.7459e-03  8.6090e-03  0:01:09   80
<aaslistener> 
   121  1.6306e-01  1.2432e-03  1.1305e-03  6.8550e-04  3.9554e-05  2.7111e-03  8.4932e-03  0:01:10   79

  iter  continuity  x-velocity  y-velocity  z-velocity      energy           k     epsilon     time/iter
<aaslistener> 
   122  1.6363e-01  1.2302e-03  1.1102e-03  7.0544e-04  3.8741e-05  2.6823e-03  8.3623e-03  0:01:11   78
<aaslistener> 
   123  1.6465e-01  1.2326e-03  1.0984e-03  7.3147e-04  3.8178e-05  2.6668e-03  8.2635e-03  0:00:56   77
<aaslistener> 
   124  1.6782e-01  1.2516e-03  1.1007e-03  7.6231e-04  3.7813e-05  2.6816e-03  8.2025e-03  0:00:59   76
<aaslistener> 
   125  1.7322e-01  1.2878e-03  1.1186e-03  7.9510e-04  3.7550e-05  2.7284e-03  8.1753e-03  0:01:02   75
<aaslistener> 
   126  1.7905e-01  1.3400e-03  1.1536e-03  8.2916e-04  3.7313e-05  2.7975e-03  8.2130e-03  0:01:04   74
<aaslistener> 
   127  1.8557e-01  1.4006e-03  1.1999e-03  8.6134e-04  3.7047e-05  2.8775e-03  8.2858e-03  0:01:05   73
<aaslistener> 
   128  1.9147e-01  1.4621e-03  1.2518e-03  8.9097e-04  3.6679e-05  2.9670e-03  8.3428e-03  0:00:51   72
<aaslistener> 
   129  1.9626e-01  1.5205e-03  1.3054e-03  9.1567e-04  3.6222e-05  3.0558e-03  8.4449e-03  0:00:55   71
<aaslistener> 
   130  2.0138e-01  1.5688e-03  1.3530e-03  9.3379e-04  3.5660e-05  3.1245e-03  8.5776e-03  0:00:57   70
<aaslistener> 
   131  2.0520e-01  1.6045e-03  1.3929e-03  9.4599e-04  3.4997e-05  3.1755e-03  8.7672e-03  0:00:59   69
<aaslistener> 
   132  2.0738e-01  1.6327e-03  1.4223e-03  9.5151e-04  3.4213e-05  3.2205e-03  8.9955e-03  0:01:00   68

  iter  continuity  x-velocity  y-velocity  z-velocity      energy           k     epsilon     time/iter
<aaslistener> 
   133  2.0941e-01  1.6491e-03  1.4403e-03  9.5228e-04  3.3429e-05  3.2504e-03  9.2346e-03  0:01:01   67
<aaslistener> 
   134  2.1088e-01  1.6536e-03  1.4502e-03  9.4866e-04  3.2593e-05  3.2856e-03  9.4990e-03  0:00:48   66
<aaslistener> 
   135  2.0948e-01  1.6443e-03  1.4505e-03  9.4349e-04  3.1722e-05  3.3360e-03  9.7779e-03  0:00:51   65
<aaslistener> 
   136  2.0789e-01  1.6235e-03  1.4408e-03  9.3705e-04  3.0784e-05  3.3484e-03  9.9598e-03  0:00:53   64
<aaslistener> 
   137  2.0596e-01  1.6002e-03  1.4254e-03  9.3010e-04  2.9841e-05  3.3260e-03  1.0023e-02  0:00:54   63
<aaslistener> 
   138  2.0296e-01  1.5728e-03  1.4064e-03  9.2258e-04  2.8849e-05  3.3290e-03  1.0093e-02  0:00:55   62
<aaslistener> 
   139  1.9859e-01  1.5372e-03  1.3806e-03  9.1367e-04  2.7759e-05  3.3090e-03  1.0170e-02  0:00:55   61
<aaslistener> 
   140  1.9527e-01  1.5036e-03  1.3550e-03  9.0220e-04  2.6732e-05  3.2621e-03  1.0048e-02  0:00:56   60
<aaslistener> 
   141  1.9219e-01  1.4705e-03  1.3291e-03  8.8748e-04  2.5818e-05  3.1633e-03  9.6929e-03  0:00:44   59
<aaslistener> 
   142  1.8888e-01  1.4332e-03  1.2983e-03  8.6898e-04  2.4946e-05  3.0603e-03  9.2133e-03  0:00:46   58
<aaslistener> 
   143  1.8445e-01  1.3927e-03  1.2695e-03  8.4529e-04  2.4021e-05  2.9583e-03  8.7450e-03  0:00:48   57

  iter  continuity  x-velocity  y-velocity  z-velocity      energy           k     epsilon     time/iter
<aaslistener> 
   144  1.7856e-01  1.3489e-03  1.2419e-03  8.1826e-04  2.3042e-05  2.8397e-03  8.2967e-03  0:00:49   56
<aaslistener> 
   145  1.7149e-01  1.3021e-03  1.2135e-03  7.9008e-04  2.2116e-05  2.7010e-03  7.8454e-03  0:00:49   55
<aaslistener> 
   146  1.6411e-01  1.2508e-03  1.1855e-03  7.6308e-04  2.1242e-05  2.5785e-03  7.5125e-03  0:00:49   54
<aaslistener> 
   147  1.5667e-01  1.1983e-03  1.1635e-03  7.4221e-04  2.0394e-05  2.4868e-03  7.3835e-03  0:00:39   53
<aaslistener> 
   148  1.4994e-01  1.1589e-03  1.1492e-03  7.3696e-04  1.9633e-05  2.4371e-03  7.5175e-03  0:00:41   52
<aaslistener> 
   149  1.4522e-01  1.1356e-03  1.1478e-03  7.4399e-04  1.9009e-05  2.4443e-03  7.7791e-03  0:00:42   51
<aaslistener> 
   150  1.4402e-01  1.1286e-03  1.1599e-03  7.5706e-04  1.8504e-05  2.5045e-03  8.1286e-03  0:00:43   50
<aaslistener> 
   151  1.4540e-01  1.1388e-03  1.1842e-03  7.7394e-04  1.8154e-05  2.5992e-03  8.4696e-03  0:00:44   49
<aaslistener> 
   152  1.4918e-01  1.1600e-03  1.2176e-03  7.9241e-04  1.7902e-05  2.7149e-03  8.7445e-03  0:00:34   48
<aaslistener> 
   153  1.5554e-01  1.1902e-03  1.2544e-03  8.0842e-04  1.7773e-05  2.8455e-03  8.9565e-03  0:00:36   47
<aaslistener> 
   154  1.6231e-01  1.2280e-03  1.2956e-03  8.2217e-04  1.7701e-05  2.9720e-03  9.0475e-03  0:00:38   46

  iter  continuity  x-velocity  y-velocity  z-velocity      energy           k     epsilon     time/iter
<aaslistener> 
   155  1.7003e-01  1.2621e-03  1.3403e-03  8.3451e-04  1.7640e-05  3.0561e-03  8.9414e-03  0:00:38   45
<aaslistener> 
   156  1.7674e-01  1.2936e-03  1.3791e-03  8.4457e-04  1.7559e-05  3.0974e-03  8.6978e-03  0:00:39   44
<aaslistener> 
   157  1.8347e-01  1.3183e-03  1.4091e-03  8.5139e-04  1.7462e-05  3.0994e-03  8.3845e-03  0:00:39   43
<aaslistener> 
   158  1.8965e-01  1.3377e-03  1.4296e-03  8.5341e-04  1.7231e-05  3.0932e-03  8.0900e-03  0:00:30   42
<aaslistener> 
   159  1.9350e-01  1.3462e-03  1.4386e-03  8.4923e-04  1.6884e-05  3.0963e-03  7.8231e-03  0:00:32   41
<aaslistener> 
   160  1.9457e-01  1.3487e-03  1.4330e-03  8.4068e-04  1.6415e-05  3.0515e-03  7.5581e-03  0:00:33   40
<aaslistener> 
   161  1.9474e-01  1.3435e-03  1.4108e-03  8.2500e-04  1.6003e-05  2.9464e-03  7.2092e-03  0:00:34   39
<aaslistener> 
   162  1.9388e-01  1.3353e-03  1.3808e-03  8.0436e-04  1.5603e-05  2.8714e-03  6.9399e-03  0:00:34   38
<aaslistener> 
   163  1.9113e-01  1.3183e-03  1.3469e-03  7.8105e-04  1.5172e-05  2.7988e-03  6.7330e-03  0:00:34   37
<aaslistener> 
   164  1.8773e-01  1.2968e-03  1.3054e-03  7.5887e-04  1.4773e-05  2.6898e-03  6.4544e-03  0:00:33   36
<aaslistener> 
   165  1.8445e-01  1.2682e-03  1.2611e-03  7.3978e-04  1.4310e-05  2.5563e-03  6.1454e-03  0:00:33   35

  iter  continuity  x-velocity  y-velocity  z-velocity      energy           k     epsilon     time/iter
<aaslistener> 
   166  1.8095e-01  1.2373e-03  1.2170e-03  7.2823e-04  1.3877e-05  2.4278e-03  5.8926e-03  0:00:32   34
<aaslistener> 
   167  1.7614e-01  1.2048e-03  1.1768e-03  7.2267e-04  1.3482e-05  2.3312e-03  5.7722e-03  0:00:38   33
<aaslistener> 
   168  1.7143e-01  1.1740e-03  1.1453e-03  7.2647e-04  1.3117e-05  2.2595e-03  5.7666e-03  0:00:36   32
<aaslistener> 
   169  1.6702e-01  1.1519e-03  1.1263e-03  7.3937e-04  1.2744e-05  2.2164e-03  5.8378e-03  0:00:28   31
<aaslistener> 
   170  1.6356e-01  1.1420e-03  1.1166e-03  7.5462e-04  1.2461e-05  2.2112e-03  5.9619e-03  0:00:28   30
<aaslistener> 
   171  1.6190e-01  1.1409e-03  1.1126e-03  7.6953e-04  1.2175e-05  2.2430e-03  6.1371e-03  0:00:27   29
<aaslistener> 
   172  1.6143e-01  1.1437e-03  1.1139e-03  7.8538e-04  1.1884e-05  2.2995e-03  6.3586e-03  0:00:27   28
<aaslistener> 
   173  1.6107e-01  1.1470e-03  1.1163e-03  7.9926e-04  1.1579e-05  2.3755e-03  6.5935e-03  0:00:26   27
<aaslistener> 
   174  1.6081e-01  1.1497e-03  1.1216e-03  8.0758e-04  1.1223e-05  2.4492e-03  6.8087e-03  0:00:25   26
<aaslistener> 
   175  1.5975e-01  1.1506e-03  1.1271e-03  8.1155e-04  1.0841e-05  2.5050e-03  6.9816e-03  0:00:29   25
<aaslistener> 
   176  1.5846e-01  1.1459e-03  1.1316e-03  8.0995e-04  1.0470e-05  2.5579e-03  7.1632e-03  0:00:27   24

  iter  continuity  x-velocity  y-velocity  z-velocity      energy           k     epsilon     time/iter
<aaslistener> 
   177  1.5691e-01  1.1363e-03  1.1316e-03  8.0345e-04  1.0087e-05  2.5821e-03  7.2915e-03  0:00:30   23
<aaslistener> 
   178  1.5543e-01  1.1212e-03  1.1250e-03  7.9220e-04  9.7100e-06  2.5703e-03  7.3202e-03  0:00:27   22
<aaslistener> 
   179  1.5332e-01  1.1031e-03  1.1095e-03  7.7622e-04  9.3517e-06  2.5192e-03  7.2367e-03  0:00:25   21
<aaslistener> 
   180  1.5071e-01  1.0822e-03  1.0866e-03  7.5805e-04  8.9812e-06  2.4237e-03  7.0206e-03  0:00:23   20
<aaslistener> 
   181  1.4807e-01  1.0550e-03  1.0522e-03  7.3730e-04  8.6289e-06  2.3026e-03  6.6864e-03  0:00:21   19
<aaslistener> 
   182  1.4548e-01  1.0215e-03  1.0113e-03  7.1686e-04  8.3141e-06  2.1752e-03  6.3458e-03  0:00:20   18
<aaslistener> 
   183  1.4187e-01  9.8436e-04  9.6573e-04  6.9354e-04  8.0120e-06  2.0440e-03  6.0214e-03  0:00:18   17
<aaslistener> 
   184  1.3844e-01  9.4597e-04  9.1934e-04  6.6704e-04  7.7242e-06  1.9217e-03  5.6831e-03  0:00:17   16
<aaslistener> 
   185  1.3487e-01  9.0828e-04  8.7322e-04  6.3983e-04  7.4760e-06  1.8112e-03  5.3614e-03  0:00:16   15
<aaslistener> 
   186  1.3150e-01  8.7147e-04  8.3191e-04  6.1364e-04  7.2579e-06  1.7202e-03  5.1092e-03  0:00:15   14
<aaslistener> 
   187  1.2797e-01  8.3749e-04  7.9612e-04  5.8836e-04  7.0679e-06  1.6560e-03  4.9573e-03  0:00:11   13

  iter  continuity  x-velocity  y-velocity  z-velocity      energy           k     epsilon     time/iter
<aaslistener> 
   188  1.2513e-01  8.0602e-04  7.6520e-04  5.6494e-04  6.8865e-06  1.6134e-03  4.8462e-03  0:00:10   12
<aaslistener> 
   189  1.2203e-01  7.7958e-04  7.3694e-04  5.4334e-04  6.7271e-06  1.5844e-03  4.7710e-03  0:00:10   11
<aaslistener> 
   190  1.1840e-01  7.5481e-04  7.1115e-04  5.2195e-04  6.5717e-06  1.5609e-03  4.6591e-03  0:00:09   10
<aaslistener> 
   191  1.1445e-01  7.3249e-04  6.8860e-04  5.0104e-04  6.4230e-06  1.5384e-03  4.5138e-03  0:00:08    9
<aaslistener> 
   192  1.1085e-01  7.1091e-04  6.6862e-04  4.8024e-04  6.2778e-06  1.5169e-03  4.3568e-03  0:00:08    8
<aaslistener> 
   193  1.0706e-01  6.9203e-04  6.5115e-04  4.6073e-04  6.1385e-06  1.4941e-03  4.2105e-03  0:00:07    7
<aaslistener> 
   194  1.0352e-01  6.7598e-04  6.3726e-04  4.4422e-04  6.0002e-06  1.4750e-03  4.1097e-03  0:00:06    6
<aaslistener> 
   195  1.0115e-01  6.6387e-04  6.2642e-04  4.3077e-04  5.8966e-06  1.4609e-03  4.0420e-03  0:00:05    5
<aaslistener> 
   196  9.8955e-02  6.5625e-04  6.1762e-04  4.2041e-04  5.8398e-06  1.4481e-03  3.9965e-03  0:00:03    4
<aaslistener> 
   197  9.7282e-02  6.5133e-04  6.1089e-04  4.1350e-04  5.8020e-06  1.4313e-03  3.9694e-03  0:00:02    3
<aaslistener> 
   198  9.5888e-02  6.4795e-04  6.0549e-04  4.0973e-04  5.7727e-06  1.4062e-03  3.9424e-03  0:00:02    2

  iter  continuity  x-velocity  y-velocity  z-velocity      energy           k     epsilon     time/iter
<aaslistener> 
   199  9.5585e-02  6.4277e-04  6.0174e-04  4.0676e-04  5.7420e-06  1.3801e-03  3.9289e-03  0:00:01    1
<aaslistener> 
   200  9.6023e-02  6.3515e-04  5.9897e-04  4.0373e-04  5.6771e-06  1.3438e-03  3.8998e-03  0:00:00    0
/define/boundary/velocity-inlet (inlet)
inlet no no yes yes no 0.8333333333333334 no 0 no 303.15 no no yes 5 10/solve/initialize/compute-defaults/all-zonessolve iterate 100<aaslistener> 

  iter  continuity  x-velocity  y-velocity  z-velocity      energy           k     epsilon     time/iter
<aaslistener> 
   200  9.6023e-02  6.3515e-04  5.9897e-04  4.0373e-04  5.6771e-06  1.3438e-03  3.8998e-03  0:01:31  100
<aaslistener> 
   201  9.6159e-02  6.2409e-04  5.9611e-04  4.0072e-04  2.7010e-04  1.3066e-03  3.8368e-03  0:01:12   99
<aaslistener> 
   202  9.6099e-02  6.1169e-04  5.9139e-04  3.9739e-04  2.4827e-04  1.2693e-03  3.7484e-03  0:01:17   98
<aaslistener> 
   203  9.5921e-02  5.9621e-04  5.8583e-04  3.9220e-04  2.1728e-04  1.2359e-03  3.6508e-03  0:01:20   97
<aaslistener> 
   204  9.5555e-02  5.8124e-04  5.7896e-04  3.8537e-04  1.8089e-04  1.2141e-03  3.5661e-03  0:01:23   96
<aaslistener> 
   205  9.5203e-02  5.6709e-04  5.7300e-04  3.7766e-04  1.4550e-04  1.2000e-03  3.5159e-03  0:01:24   95
<aaslistener> 
   206  9.4873e-02  5.5567e-04  5.6688e-04  3.6995e-04  1.1537e-04  1.1877e-03  3.4668e-03  0:01:26   94
<aaslistener> 
   207  9.3866e-02  5.4605e-04  5.6212e-04  3.6401e-04  9.1950e-05  1.1818e-03  3.4065e-03  0:01:08   93
<aaslistener> 
   208  9.2850e-02  5.3913e-04  5.6028e-04  3.5986e-04  7.5138e-05  1.1898e-03  3.3399e-03  0:01:12   92
<aaslistener> 
   209  9.1903e-02  5.3459e-04  5.6349e-04  3.5660e-04  6.3877e-05  1.2111e-03  3.3082e-03  0:01:15   91
<aaslistener> 
   210  9.0658e-02  5.3312e-04  5.7264e-04  3.5270e-04  5.6684e-05  1.2481e-03  3.3667e-03  0:01:17   90

  iter  continuity  x-velocity  y-velocity  z-velocity      energy           k     epsilon     time/iter
<aaslistener> 
   211  8.9236e-02  5.3500e-04  5.8633e-04  3.4949e-04  5.2156e-05  1.2969e-03  3.5217e-03  0:01:19   89
<aaslistener> 
   212  8.7536e-02  5.4058e-04  6.0175e-04  3.4709e-04  4.9294e-05  1.3490e-03  3.7092e-03  0:01:03   88
<aaslistener> 
   213  8.5617e-02  5.5011e-04  6.1902e-04  3.4572e-04  4.7432e-05  1.4008e-03  3.9087e-03  0:01:07   87
<aaslistener> 
   214  8.3661e-02  5.6249e-04  6.3765e-04  3.4768e-04  4.6099e-05  1.4467e-03  4.1192e-03  0:01:10   86
<aaslistener> 
   215  8.1842e-02  5.7754e-04  6.5769e-04  3.5468e-04  4.4973e-05  1.4885e-03  4.3221e-03  0:01:12   85
<aaslistener> 
   216  8.0785e-02  5.9571e-04  6.7825e-04  3.6857e-04  4.3969e-05  1.5304e-03  4.5416e-03  0:01:14   84
<aaslistener> 
   217  8.0562e-02  6.1684e-04  6.9982e-04  3.8773e-04  4.2996e-05  1.5739e-03  4.7776e-03  0:01:15   83
<aaslistener> 
   218  8.1420e-02  6.4094e-04  7.2404e-04  4.0933e-04  4.2002e-05  1.6199e-03  4.9922e-03  0:01:16   82
<aaslistener> 
   219  8.3736e-02  6.6630e-04  7.4961e-04  4.3187e-04  4.0964e-05  1.6686e-03  5.1864e-03  0:01:00   81
<aaslistener> 
   220  8.6806e-02  6.9237e-04  7.7450e-04  4.5406e-04  3.9877e-05  1.7167e-03  5.3430e-03  0:01:03   80
<aaslistener> 
   221  9.0270e-02  7.1602e-04  7.9727e-04  4.7453e-04  3.8723e-05  1.7600e-03  5.4769e-03  0:01:06   79

  iter  continuity  x-velocity  y-velocity  z-velocity      energy           k     epsilon     time/iter
<aaslistener> 
   222  9.3737e-02  7.3643e-04  8.1495e-04  4.9160e-04  3.7497e-05  1.7903e-03  5.5687e-03  0:01:08   78
<aaslistener> 
   223  9.6753e-02  7.5136e-04  8.2724e-04  5.0474e-04  3.6244e-05  1.8052e-03  5.6124e-03  0:01:09   77
<aaslistener> 
   224  9.9953e-02  7.6371e-04  8.3242e-04  5.1334e-04  3.4980e-05  1.8009e-03  5.6139e-03  0:01:10   76
<aaslistener> 
   225  1.0297e-01  7.7360e-04  8.3049e-04  5.1846e-04  3.3715e-05  1.7920e-03  5.6140e-03  0:00:55   75
<aaslistener> 
   226  1.0564e-01  7.8230e-04  8.2260e-04  5.2068e-04  3.2495e-05  1.7765e-03  5.6170e-03  0:00:58   74
<aaslistener> 
   227  1.0773e-01  7.8942e-04  8.0921e-04  5.2070e-04  3.1384e-05  1.7673e-03  5.6395e-03  0:01:00   73
<aaslistener> 
   228  1.0983e-01  7.9519e-04  7.9129e-04  5.1976e-04  3.0368e-05  1.7724e-03  5.6905e-03  0:01:02   72
<aaslistener> 
   229  1.1128e-01  8.0228e-04  7.7333e-04  5.1927e-04  2.9440e-05  1.7869e-03  5.7961e-03  0:01:03   71
<aaslistener> 
   230  1.1206e-01  8.1039e-04  7.5958e-04  5.1892e-04  2.8620e-05  1.8059e-03  5.9173e-03  0:00:50   70
<aaslistener> 
   231  1.1261e-01  8.1842e-04  7.5209e-04  5.2042e-04  2.7905e-05  1.8310e-03  6.0512e-03  0:00:53   69
<aaslistener> 
   232  1.1303e-01  8.2534e-04  7.5326e-04  5.2343e-04  2.7258e-05  1.8589e-03  6.1808e-03  0:00:55   68

  iter  continuity  x-velocity  y-velocity  z-velocity      energy           k     epsilon     time/iter
<aaslistener> 
   233  1.1369e-01  8.3246e-04  7.6349e-04  5.2545e-04  2.6648e-05  1.8948e-03  6.3340e-03  0:00:57   67
<aaslistener> 
   234  1.1422e-01  8.3941e-04  7.8152e-04  5.2789e-04  2.6055e-05  1.9459e-03  6.5473e-03  0:00:58   66
<aaslistener> 
   235  1.1466e-01  8.4181e-04  8.0168e-04  5.3080e-04  2.5455e-05  1.9953e-03  6.7336e-03  0:00:59   65
<aaslistener> 
   236  1.1595e-01  8.3752e-04  8.2051e-04  5.3280e-04  2.4823e-05  2.0312e-03  6.8555e-03  0:00:46   64
<aaslistener> 
   237  1.1773e-01  8.2731e-04  8.3617e-04  5.3248e-04  2.4166e-05  2.0463e-03  6.8853e-03  0:00:49   63
<aaslistener> 
   238  1.1874e-01  8.1277e-04  8.4296e-04  5.2866e-04  2.3516e-05  2.0406e-03  6.8309e-03  0:00:51   62
<aaslistener> 
   239  1.1899e-01  7.9632e-04  8.4355e-04  5.2253e-04  2.2884e-05  2.0143e-03  6.6995e-03  0:00:52   61
<aaslistener> 
   240  1.1850e-01  7.7980e-04  8.3796e-04  5.1536e-04  2.2294e-05  1.9727e-03  6.5183e-03  0:00:53   60
<aaslistener> 
   241  1.1757e-01  7.6589e-04  8.2548e-04  5.0843e-04  2.1727e-05  1.9182e-03  6.2941e-03  0:00:54   59
<aaslistener> 
   242  1.1603e-01  7.5550e-04  8.0965e-04  5.0031e-04  2.1186e-05  1.8552e-03  6.0446e-03  0:00:42   58
<aaslistener> 
   243  1.1374e-01  7.4779e-04  7.8995e-04  4.9195e-04  2.0661e-05  1.7822e-03  5.7279e-03  0:00:45   57

  iter  continuity  x-velocity  y-velocity  z-velocity      energy           k     epsilon     time/iter
<aaslistener> 
   244  1.1140e-01  7.4250e-04  7.6898e-04  4.8496e-04  2.0155e-05  1.7103e-03  5.3851e-03  0:00:46   56
<aaslistener> 
   245  1.0954e-01  7.4074e-04  7.4668e-04  4.7886e-04  1.9706e-05  1.6604e-03  5.0774e-03  0:00:47   55
<aaslistener> 
   246  1.0793e-01  7.4489e-04  7.2605e-04  4.7538e-04  1.9320e-05  1.6362e-03  4.8453e-03  0:00:48   54
<aaslistener> 
   247  1.0718e-01  7.5292e-04  7.1059e-04  4.7409e-04  1.8965e-05  1.6263e-03  4.7352e-03  0:00:48   53
<aaslistener> 
   248  1.0755e-01  7.6110e-04  7.0244e-04  4.7533e-04  1.8619e-05  1.6262e-03  4.6974e-03  0:00:38   52
<aaslistener> 
   249  1.0835e-01  7.6693e-04  7.0047e-04  4.7785e-04  1.8299e-05  1.6333e-03  4.7140e-03  0:00:40   51
<aaslistener> 
   250  1.0881e-01  7.7051e-04  7.0620e-04  4.8141e-04  1.8006e-05  1.6494e-03  4.7754e-03  0:00:41   50
<aaslistener> 
   251  1.0945e-01  7.7278e-04  7.1509e-04  4.8433e-04  1.7728e-05  1.6833e-03  4.9023e-03  0:00:42   49
<aaslistener> 
   252  1.1052e-01  7.7599e-04  7.2682e-04  4.8892e-04  1.7487e-05  1.7309e-03  5.1000e-03  0:00:43   48
<aaslistener> 
   253  1.1133e-01  7.8000e-04  7.4343e-04  4.9581e-04  1.7238e-05  1.7847e-03  5.3257e-03  0:00:33   47
<aaslistener> 
   254  1.1283e-01  7.8588e-04  7.6166e-04  5.0262e-04  1.7000e-05  1.8386e-03  5.5733e-03  0:00:35   46

  iter  continuity  x-velocity  y-velocity  z-velocity      energy           k     epsilon     time/iter
<aaslistener> 
   255  1.1491e-01  7.9311e-04  7.8001e-04  5.0931e-04  1.6795e-05  1.8949e-03  5.8105e-03  0:00:37   45
<aaslistener> 
   256  1.1740e-01  8.0288e-04  7.9913e-04  5.1330e-04  1.6592e-05  1.9428e-03  6.0076e-03  0:00:37   44
<aaslistener> 
   257  1.2026e-01  8.1402e-04  8.1848e-04  5.1616e-04  1.6390e-05  1.9853e-03  6.1740e-03  0:00:38   43
<aaslistener> 
   258  1.2232e-01  8.2475e-04  8.3772e-04  5.1720e-04  1.6197e-05  2.0232e-03  6.2775e-03  0:00:38   42
<aaslistener> 
   259  1.2410e-01  8.3588e-04  8.5312e-04  5.1778e-04  1.5990e-05  2.0522e-03  6.3230e-03  0:00:30   41
<aaslistener> 
   260  1.2567e-01  8.4944e-04  8.6487e-04  5.1903e-04  1.5757e-05  2.0695e-03  6.3020e-03  0:00:31   40
<aaslistener> 
   261  1.2718e-01  8.6618e-04  8.7275e-04  5.2220e-04  1.5536e-05  2.0711e-03  6.1883e-03  0:00:32   39
<aaslistener> 
   262  1.2859e-01  8.8615e-04  8.7660e-04  5.2995e-04  1.5338e-05  2.0673e-03  6.0184e-03  0:00:33   38
<aaslistener> 
   263  1.3018e-01  9.0388e-04  8.7702e-04  5.4121e-04  1.5143e-05  2.0561e-03  5.8163e-03  0:00:33   37
<aaslistener> 
   264  1.3195e-01  9.2229e-04  8.7621e-04  5.5466e-04  1.4989e-05  2.0506e-03  5.5909e-03  0:00:33   36
<aaslistener> 
   265  1.3324e-01  9.3929e-04  8.7361e-04  5.6899e-04  1.4853e-05  2.0495e-03  5.3739e-03  0:00:25   35

  iter  continuity  x-velocity  y-velocity  z-velocity      energy           k     epsilon     time/iter
<aaslistener> 
   266  1.3527e-01  9.5609e-04  8.7129e-04  5.8514e-04  1.4765e-05  2.0492e-03  5.1840e-03  0:00:27   34
<aaslistener> 
   267  1.3745e-01  9.7230e-04  8.7223e-04  6.0167e-04  1.4702e-05  2.0444e-03  5.0449e-03  0:00:27   33
<aaslistener> 
   268  1.3912e-01  9.9047e-04  8.7482e-04  6.1846e-04  1.4580e-05  2.0345e-03  4.9908e-03  0:00:28   32
<aaslistener> 
   269  1.4121e-01  1.0057e-03  8.7810e-04  6.3387e-04  1.4384e-05  2.0245e-03  4.9561e-03  0:00:28   31
<aaslistener> 
   270  1.4356e-01  1.0155e-03  8.8487e-04  6.4833e-04  1.4143e-05  2.0070e-03  4.9113e-03  0:00:27   30
<aaslistener> 
   271  1.4556e-01  1.0210e-03  8.8783e-04  6.6012e-04  1.3883e-05  1.9848e-03  4.8721e-03  0:00:21   29
<aaslistener> 
   272  1.4748e-01  1.0184e-03  8.8985e-04  6.6733e-04  1.3639e-05  1.9532e-03  4.8243e-03  0:00:22   28
<aaslistener> 
   273  1.4862e-01  1.0070e-03  8.8721e-04  6.6960e-04  1.3408e-05  1.9186e-03  4.7656e-03  0:00:22   27
<aaslistener> 
   274  1.4869e-01  9.8960e-04  8.8094e-04  6.6932e-04  1.3151e-05  1.8796e-03  4.7078e-03  0:00:22   26
<aaslistener> 
   275  1.4784e-01  9.6737e-04  8.7232e-04  6.6573e-04  1.2855e-05  1.8359e-03  4.6718e-03  0:00:22   25
<aaslistener> 
   276  1.4639e-01  9.4202e-04  8.6020e-04  6.5721e-04  1.2542e-05  1.7905e-03  4.6241e-03  0:00:22   24

  iter  continuity  x-velocity  y-velocity  z-velocity      energy           k     epsilon     time/iter
<aaslistener> 
   277  1.4420e-01  9.1729e-04  8.4566e-04  6.4536e-04  1.2255e-05  1.7505e-03  4.6002e-03  0:00:17   23
<aaslistener> 
   278  1.4163e-01  8.9239e-04  8.3174e-04  6.2955e-04  1.2056e-05  1.7224e-03  4.6112e-03  0:00:17   22
<aaslistener> 
   279  1.3875e-01  8.7299e-04  8.1929e-04  6.1396e-04  1.1855e-05  1.7104e-03  4.6664e-03  0:00:17   21
<aaslistener> 
   280  1.3601e-01  8.5847e-04  8.1005e-04  5.9808e-04  1.1642e-05  1.7202e-03  4.7473e-03  0:00:17   20
<aaslistener> 
   281  1.3311e-01  8.4882e-04  8.0379e-04  5.8336e-04  1.1454e-05  1.7402e-03  4.8248e-03  0:00:17   19
<aaslistener> 
   282  1.3003e-01  8.4435e-04  8.0321e-04  5.7142e-04  1.1286e-05  1.7670e-03  4.9214e-03  0:00:13   18
<aaslistener> 
   283  1.2727e-01  8.4111e-04  8.0555e-04  5.6209e-04  1.1173e-05  1.7931e-03  5.0163e-03  0:00:13   17
<aaslistener> 
   284  1.2441e-01  8.3964e-04  8.1014e-04  5.5483e-04  1.1129e-05  1.8170e-03  5.1088e-03  0:00:13   16
<aaslistener> 
   285  1.2228e-01  8.4133e-04  8.1701e-04  5.5110e-04  1.1149e-05  1.8412e-03  5.2174e-03  0:00:13   15
<aaslistener> 
   286  1.2028e-01  8.4594e-04  8.2580e-04  5.5076e-04  1.1220e-05  1.8731e-03  5.3688e-03  0:00:12   14
<aaslistener> 
   287  1.1838e-01  8.5257e-04  8.3987e-04  5.5397e-04  1.1339e-05  1.9093e-03  5.5605e-03  0:00:12   13

  iter  continuity  x-velocity  y-velocity  z-velocity      energy           k     epsilon     time/iter
<aaslistener> 
   288  1.1711e-01  8.6253e-04  8.5918e-04  5.6102e-04  1.1534e-05  1.9508e-03  5.7621e-03  0:00:11   12
<aaslistener> 
   289  1.1669e-01  8.7641e-04  8.8410e-04  5.7125e-04  1.1789e-05  2.0054e-03  5.9837e-03  0:00:10   11
<aaslistener> 
   290  1.1718e-01  8.9313e-04  9.1383e-04  5.8590e-04  1.2105e-05  2.0739e-03  6.2407e-03  0:00:08   10
<aaslistener> 
   291  1.1866e-01  9.1620e-04  9.5073e-04  6.0426e-04  1.2437e-05  2.1540e-03  6.5183e-03  0:00:07    9
<aaslistener> 
   292  1.2187e-01  9.4207e-04  9.9262e-04  6.2540e-04  1.2799e-05  2.2478e-03  6.8105e-03  0:00:07    8
<aaslistener> 
   293  1.2650e-01  9.7321e-04  1.0370e-03  6.4759e-04  1.3226e-05  2.3465e-03  7.1093e-03  0:00:06    7
<aaslistener> 
   294  1.3150e-01  1.0099e-03  1.0829e-03  6.7139e-04  1.3652e-05  2.4515e-03  7.4131e-03  0:00:05    6
<aaslistener> 
   295  1.3636e-01  1.0537e-03  1.1305e-03  6.9764e-04  1.4070e-05  2.5625e-03  7.7183e-03  0:00:05    5
<aaslistener> 
   296  1.4157e-01  1.1052e-03  1.1814e-03  7.2477e-04  1.4487e-05  2.6791e-03  8.0225e-03  0:00:04    4
<aaslistener> 
   297  1.4690e-01  1.1638e-03  1.2275e-03  7.5036e-04  1.4855e-05  2.7872e-03  8.3087e-03  0:00:02    3
<aaslistener> 
   298  1.5278e-01  1.2226e-03  1.2708e-03  7.7637e-04  1.5193e-05  2.8879e-03  8.6326e-03  0:00:02    2

  iter  continuity  x-velocity  y-velocity  z-velocity      energy           k     epsilon     time/iter
<aaslistener> 
   299  1.5892e-01  1.2794e-03  1.3077e-03  8.0359e-04  1.5494e-05  2.9856e-03  8.9590e-03  0:00:01    1
<aaslistener> 
   300  1.6421e-01  1.3291e-03  1.3408e-03  8.3108e-04  1.5756e-05  3.0744e-03  9.2987e-03  0:00:00    0
/define/boundary/velocity-inlet (inlet)
inlet no no yes yes no 0.8333333333333334 no 0 no 283.15 no no yes 5 10/solve/initialize/compute-defaults/all-zonessolve iterate 100<aaslistener> 

  iter  continuity  x-velocity  y-velocity  z-velocity      energy           k     epsilon     time/iter
<aaslistener> 
   300  1.6421e-01  1.3291e-03  1.3408e-03  8.3108e-04  1.5756e-05  3.0744e-03  9.2987e-03  0:01:27  100
<aaslistener> 
   301  1.7117e-01  1.3734e-03  1.3696e-03  8.6094e-04  2.6723e-04  3.1434e-03  9.6547e-03  0:01:29   99
<aaslistener> 
   302  1.7877e-01  1.4118e-03  1.3951e-03  8.9210e-04  2.4669e-04  3.1836e-03  9.8874e-03  0:01:10   98
<aaslistener> 
   303  1.8530e-01  1.4400e-03  1.4244e-03  9.2600e-04  2.1903e-04  3.2323e-03  1.0194e-02  0:01:15   97
<aaslistener> 
   304  1.9236e-01  1.4565e-03  1.4555e-03  9.6034e-04  1.8577e-04  3.2694e-03  1.0452e-02  0:01:19   96
<aaslistener> 
   305  1.9989e-01  1.4649e-03  1.4854e-03  9.9336e-04  1.5157e-04  3.2915e-03  1.0584e-02  0:01:21   95
<aaslistener> 
   306  2.0783e-01  1.4637e-03  1.5126e-03  1.0224e-03  1.2118e-04  3.3117e-03  1.0642e-02  0:01:23   94
<aaslistener> 
   307  2.1461e-01  1.4569e-03  1.5294e-03  1.0455e-03  9.7260e-05  3.3540e-03  1.0758e-02  0:01:06   93
<aaslistener> 
   308  2.1927e-01  1.4439e-03  1.5371e-03  1.0555e-03  7.9991e-05  3.3813e-03  1.0856e-02  0:01:10   92
<aaslistener> 
   309  2.2318e-01  1.4284e-03  1.5400e-03  1.0500e-03  6.8658e-05  3.4422e-03  1.1219e-02  0:01:14   91
<aaslistener> 
   310  2.2442e-01  1.4178e-03  1.5391e-03  1.0417e-03  6.1581e-05  3.4687e-03  1.1499e-02  0:01:17   90

  iter  continuity  x-velocity  y-velocity  z-velocity      energy           k     epsilon     time/iter
<aaslistener> 
   311  2.2374e-01  1.4222e-03  1.5286e-03  1.0289e-03  5.7468e-05  3.4855e-03  1.1533e-02  0:01:18   89
<aaslistener> 
   312  2.2175e-01  1.4370e-03  1.5153e-03  1.0154e-03  5.5018e-05  3.4933e-03  1.1472e-02  0:01:20   88
<aaslistener> 
   313  2.1811e-01  1.4615e-03  1.4983e-03  1.0022e-03  5.3639e-05  3.5291e-03  1.1297e-02  0:01:03   87
<aaslistener> 
   314  2.1438e-01  1.4898e-03  1.4886e-03  9.9995e-04  5.2921e-05  3.5817e-03  1.1048e-02  0:01:07   86
<aaslistener> 
   315  2.1261e-01  1.5192e-03  1.4905e-03  1.0025e-03  5.2626e-05  3.5857e-03  1.0739e-02  0:01:10   85
<aaslistener> 
   316  2.1170e-01  1.5519e-03  1.5004e-03  1.0048e-03  5.2531e-05  3.6187e-03  1.0404e-02  0:01:12   84
<aaslistener> 
   317  2.1172e-01  1.5745e-03  1.5144e-03  1.0041e-03  5.2363e-05  3.6120e-03  1.0195e-02  0:01:14   83
<aaslistener> 
   318  2.1214e-01  1.5882e-03  1.5243e-03  1.0070e-03  5.1866e-05  3.5830e-03  1.0092e-02  0:00:58   82
<aaslistener> 
   319  2.1187e-01  1.5921e-03  1.5260e-03  1.0133e-03  5.1212e-05  3.5343e-03  1.0254e-02  0:01:02   81
<aaslistener> 
   320  2.1097e-01  1.5767e-03  1.5206e-03  1.0255e-03  4.9519e-05  3.3774e-03  1.0096e-02  0:01:05   80
<aaslistener> 
   321  2.0878e-01  1.5410e-03  1.4973e-03  1.0300e-03  4.7681e-05  3.2614e-03  9.8047e-03  0:01:07   79

  iter  continuity  x-velocity  y-velocity  z-velocity      energy           k     epsilon     time/iter
<aaslistener> 
   322  2.0616e-01  1.4933e-03  1.4593e-03  1.0273e-03  4.6026e-05  3.1754e-03  9.6977e-03  0:01:09   78
<aaslistener> 
   323  2.0377e-01  1.4449e-03  1.4251e-03  1.0203e-03  4.4678e-05  3.0907e-03  9.5395e-03  0:01:10   77
<aaslistener> 
   324  2.0247e-01  1.4095e-03  1.4017e-03  1.0113e-03  4.3623e-05  3.0192e-03  9.3762e-03  0:00:55   76
<aaslistener> 
   325  2.0184e-01  1.3927e-03  1.3929e-03  1.0067e-03  4.2765e-05  2.9674e-03  9.2109e-03  0:00:58   75
<aaslistener> 
   326  2.0235e-01  1.3987e-03  1.3935e-03  1.0031e-03  4.2019e-05  2.9645e-03  9.0729e-03  0:01:01   74
<aaslistener> 
   327  2.0371e-01  1.4152e-03  1.3954e-03  9.9678e-04  4.1415e-05  2.9880e-03  8.9914e-03  0:01:03   73
<aaslistener> 
   328  2.0637e-01  1.4408e-03  1.3886e-03  9.9480e-04  4.0713e-05  3.0147e-03  8.8489e-03  0:01:04   72
<aaslistener> 
   329  2.0777e-01  1.4714e-03  1.3774e-03  9.9368e-04  3.9823e-05  3.0320e-03  8.6281e-03  0:01:05   71
<aaslistener> 
   330  2.0947e-01  1.4936e-03  1.3638e-03  9.9242e-04  3.8751e-05  3.0189e-03  8.3748e-03  0:00:51   70
<aaslistener> 
   331  2.1037e-01  1.5034e-03  1.3447e-03  9.8711e-04  3.7505e-05  2.9792e-03  8.0905e-03  0:00:54   69
<aaslistener> 
   332  2.0968e-01  1.5043e-03  1.3252e-03  9.7905e-04  3.6076e-05  2.9114e-03  7.7868e-03  0:00:56   68

  iter  continuity  x-velocity  y-velocity  z-velocity      energy           k     epsilon     time/iter
<aaslistener> 
   333  2.0646e-01  1.4973e-03  1.3033e-03  9.6903e-04  3.4628e-05  2.8378e-03  7.4932e-03  0:00:58   67
<aaslistener> 
   334  2.0154e-01  1.4847e-03  1.2836e-03  9.5585e-04  3.3239e-05  2.7759e-03  7.2519e-03  0:00:59   66
<aaslistener> 
   335  1.9693e-01  1.4624e-03  1.2799e-03  9.3894e-04  3.2012e-05  2.7449e-03  7.1040e-03  0:00:46   65
<aaslistener> 
   336  1.9260e-01  1.4332e-03  1.2988e-03  9.2534e-04  3.1008e-05  2.7538e-03  7.1929e-03  0:00:49   64
<aaslistener> 
   337  1.8800e-01  1.4036e-03  1.3329e-03  9.1597e-04  3.0220e-05  2.8155e-03  7.5296e-03  0:00:51   63
<aaslistener> 
   338  1.8452e-01  1.3810e-03  1.3761e-03  9.0956e-04  2.9606e-05  2.9142e-03  8.0456e-03  0:00:53   62
<aaslistener> 
   339  1.8333e-01  1.3660e-03  1.4169e-03  9.0800e-04  2.9045e-05  3.0291e-03  8.5970e-03  0:00:54   61
<aaslistener> 
   340  1.8386e-01  1.3654e-03  1.4457e-03  9.1085e-04  2.8533e-05  3.1456e-03  9.1415e-03  0:00:54   60
<aaslistener> 
   341  1.8560e-01  1.3812e-03  1.4595e-03  9.1477e-04  2.8200e-05  3.2458e-03  9.6063e-03  0:00:43   59
<aaslistener> 
   342  1.8915e-01  1.4144e-03  1.4588e-03  9.1823e-04  2.8053e-05  3.3582e-03  1.0033e-02  0:00:45   58
<aaslistener> 
   343  1.9218e-01  1.4674e-03  1.4544e-03  9.2079e-04  2.7835e-05  3.4811e-03  1.0512e-02  0:00:47   57

  iter  continuity  x-velocity  y-velocity  z-velocity      energy           k     epsilon     time/iter
<aaslistener> 
   344  1.9541e-01  1.5268e-03  1.4601e-03  9.2429e-04  2.7538e-05  3.6029e-03  1.0919e-02  0:00:48   56
<aaslistener> 
   345  1.9704e-01  1.5843e-03  1.4737e-03  9.3334e-04  2.7291e-05  3.6905e-03  1.1205e-02  0:00:49   55
<aaslistener> 
   346  1.9729e-01  1.6344e-03  1.4908e-03  9.4783e-04  2.7327e-05  3.7153e-03  1.1293e-02  0:00:49   54
<aaslistener> 
   347  1.9782e-01  1.6786e-03  1.5125e-03  9.6879e-04  2.7118e-05  3.6999e-03  1.1268e-02  0:00:39   53
<aaslistener> 
   348  2.0192e-01  1.7034e-03  1.5432e-03  1.0000e-03  2.6677e-05  3.6742e-03  1.1177e-02  0:00:41   52
<aaslistener> 
   349  2.0629e-01  1.6963e-03  1.5805e-03  1.0363e-03  2.6160e-05  3.6345e-03  1.0978e-02  0:00:42   51
<aaslistener> 
   350  2.1070e-01  1.6616e-03  1.6169e-03  1.0673e-03  2.5465e-05  3.5826e-03  1.0735e-02  0:00:43   50
<aaslistener> 
   351  2.1549e-01  1.6140e-03  1.6514e-03  1.0878e-03  2.4721e-05  3.5419e-03  1.0678e-02  0:00:44   49
<aaslistener> 
   352  2.2033e-01  1.5612e-03  1.6771e-03  1.0975e-03  2.3959e-05  3.5183e-03  1.0781e-02  0:00:44   48
<aaslistener> 
   353  2.2547e-01  1.5122e-03  1.6861e-03  1.0943e-03  2.3450e-05  3.4848e-03  1.0889e-02  0:00:34   47
<aaslistener> 
   354  2.2992e-01  1.4800e-03  1.6683e-03  1.0775e-03  2.3081e-05  3.4565e-03  1.0877e-02  0:00:36   46

  iter  continuity  x-velocity  y-velocity  z-velocity      energy           k     epsilon     time/iter
<aaslistener> 
   355  2.3162e-01  1.4774e-03  1.6307e-03  1.0572e-03  2.2880e-05  3.4117e-03  1.0705e-02  0:00:37   45
<aaslistener> 
   356  2.2972e-01  1.5023e-03  1.5793e-03  1.0340e-03  2.2739e-05  3.3616e-03  1.0424e-02  0:00:38   44
<aaslistener> 
   357  2.2727e-01  1.5415e-03  1.5287e-03  1.0118e-03  2.2665e-05  3.3103e-03  1.0049e-02  0:00:38   43
<aaslistener> 
   358  2.2545e-01  1.5794e-03  1.4826e-03  9.9197e-04  2.2622e-05  3.2535e-03  9.5964e-03  0:00:30   42
<aaslistener> 
   359  2.2252e-01  1.6082e-03  1.4372e-03  9.7947e-04  2.2482e-05  3.1903e-03  9.0804e-03  0:00:32   41
<aaslistener> 
   360  2.1958e-01  1.6237e-03  1.3913e-03  9.7066e-04  2.2297e-05  3.1339e-03  8.6332e-03  0:00:33   40
<aaslistener> 
   361  2.1647e-01  1.6330e-03  1.3554e-03  9.6702e-04  2.2068e-05  3.0937e-03  8.3177e-03  0:00:33   39
<aaslistener> 
   362  2.1445e-01  1.6406e-03  1.3372e-03  9.6706e-04  2.1815e-05  3.0708e-03  8.2256e-03  0:00:34   38
<aaslistener> 
   363  2.1310e-01  1.6457e-03  1.3393e-03  9.6957e-04  2.1664e-05  3.0896e-03  8.4003e-03  0:00:33   37
<aaslistener> 
   364  2.1190e-01  1.6424e-03  1.3618e-03  9.7538e-04  2.1599e-05  3.1596e-03  8.8551e-03  0:00:26   36
<aaslistener> 
   365  2.1175e-01  1.6285e-03  1.3966e-03  9.9117e-04  2.1580e-05  3.2581e-03  9.4662e-03  0:00:27   35

  iter  continuity  x-velocity  y-velocity  z-velocity      energy           k     epsilon     time/iter
<aaslistener> 
   366  2.1326e-01  1.6044e-03  1.4367e-03  1.0071e-03  2.1475e-05  3.3426e-03  1.0003e-02  0:00:28   34
<aaslistener> 
   367  2.1512e-01  1.5735e-03  1.4859e-03  1.0173e-03  2.1258e-05  3.3935e-03  1.0362e-02  0:00:28   33
<aaslistener> 
   368  2.1798e-01  1.5477e-03  1.5362e-03  1.0242e-03  2.1122e-05  3.4158e-03  1.0569e-02  0:00:28   32
<aaslistener> 
   369  2.2181e-01  1.5344e-03  1.5806e-03  1.0240e-03  2.0977e-05  3.4172e-03  1.0610e-02  0:00:22   31
<aaslistener> 
   370  2.2647e-01  1.5342e-03  1.6156e-03  1.0155e-03  2.0660e-05  3.4513e-03  1.0647e-02  0:00:23   30
<aaslistener> 
   371  2.3039e-01  1.5390e-03  1.6305e-03  1.0032e-03  2.0169e-05  3.5050e-03  1.0762e-02  0:00:24   29
<aaslistener> 
   372  2.3519e-01  1.5399e-03  1.6302e-03  9.9539e-04  1.9596e-05  3.5431e-03  1.0860e-02  0:00:24   28
<aaslistener> 
   373  2.3580e-01  1.5356e-03  1.6143e-03  9.8575e-04  1.9149e-05  3.5680e-03  1.0937e-02  0:00:24   27
<aaslistener> 
   374  2.3298e-01  1.5341e-03  1.5883e-03  9.8036e-04  1.8903e-05  3.5799e-03  1.0959e-02  0:00:24   26
<aaslistener> 
   375  2.2834e-01  1.5420e-03  1.5623e-03  9.8787e-04  1.8965e-05  3.6542e-03  1.1162e-02  0:00:23   25
<aaslistener> 
   376  2.2517e-01  1.5563e-03  1.5424e-03  1.0024e-03  1.9194e-05  3.7165e-03  1.1452e-02  0:00:18   24

  iter  continuity  x-velocity  y-velocity  z-velocity      energy           k     epsilon     time/iter
<aaslistener> 
   377  2.2258e-01  1.5748e-03  1.5358e-03  1.0190e-03  1.9563e-05  3.7185e-03  1.1570e-02  0:00:18   23
<aaslistener> 
   378  2.2332e-01  1.5903e-03  1.5477e-03  1.0380e-03  1.9846e-05  3.7301e-03  1.1639e-02  0:00:18   22
<aaslistener> 
   379  2.2599e-01  1.5893e-03  1.5572e-03  1.0563e-03  1.9970e-05  3.7820e-03  1.1661e-02  0:00:18   21
<aaslistener> 
   380  2.3180e-01  1.5872e-03  1.5697e-03  1.0720e-03  1.9917e-05  3.8106e-03  1.1764e-02  0:00:18   20
<aaslistener> 
   381  2.3873e-01  1.5848e-03  1.5906e-03  1.0860e-03  1.9672e-05  3.7950e-03  1.1704e-02  0:00:14   19
<aaslistener> 
   382  2.4440e-01  1.5830e-03  1.6171e-03  1.0979e-03  1.9370e-05  3.7526e-03  1.1446e-02  0:00:14   18
<aaslistener> 
   383  2.4985e-01  1.5834e-03  1.6415e-03  1.1014e-03  1.9008e-05  3.6638e-03  1.1056e-02  0:00:14   17
<aaslistener> 
   384  2.5412e-01  1.5849e-03  1.6510e-03  1.1031e-03  1.8649e-05  3.5559e-03  1.0641e-02  0:00:14   16
<aaslistener> 
   385  2.5659e-01  1.5889e-03  1.6389e-03  1.0956e-03  1.8289e-05  3.4587e-03  1.0222e-02  0:00:13   15
<aaslistener> 
   386  2.5398e-01  1.5899e-03  1.5999e-03  1.0846e-03  1.7941e-05  3.3840e-03  9.9751e-03  0:00:10   14
<aaslistener> 
   387  2.4650e-01  1.5891e-03  1.5418e-03  1.0827e-03  1.7655e-05  3.3416e-03  9.8903e-03  0:00:10   13

  iter  continuity  x-velocity  y-velocity  z-velocity      energy           k     epsilon     time/iter
<aaslistener> 
   388  2.3959e-01  1.5846e-03  1.4812e-03  1.0839e-03  1.7458e-05  3.3108e-03  9.9171e-03  0:00:10   12
<aaslistener> 
   389  2.3431e-01  1.5732e-03  1.4235e-03  1.0794e-03  1.7415e-05  3.2828e-03  9.9583e-03  0:00:09   11
<aaslistener> 
   390  2.3063e-01  1.5589e-03  1.3740e-03  1.0717e-03  1.7402e-05  3.2850e-03  1.0021e-02  0:00:09   10
<aaslistener> 
   391  2.2874e-01  1.5412e-03  1.3511e-03  1.0557e-03  1.7402e-05  3.2987e-03  1.0111e-02  0:00:06    9
<aaslistener> 
   392  2.2688e-01  1.5361e-03  1.3614e-03  1.0312e-03  1.7365e-05  3.3247e-03  1.0241e-02  0:00:06    8
<aaslistener> 
   393  2.2295e-01  1.5372e-03  1.4040e-03  1.0103e-03  1.7389e-05  3.3591e-03  1.0439e-02  0:00:06    7
<aaslistener> 
   394  2.2054e-01  1.5373e-03  1.4716e-03  1.0002e-03  1.7442e-05  3.4175e-03  1.0556e-02  0:00:05    6
<aaslistener> 
   395  2.2012e-01  1.5388e-03  1.5412e-03  1.0039e-03  1.7628e-05  3.5039e-03  1.0732e-02  0:00:04    5
<aaslistener> 
   396  2.2286e-01  1.5437e-03  1.6048e-03  1.0162e-03  1.7869e-05  3.6255e-03  1.1045e-02  0:00:04    4
<aaslistener> 
   397  2.2720e-01  1.5505e-03  1.6592e-03  1.0310e-03  1.8113e-05  3.7512e-03  1.1433e-02  0:00:02    3
<aaslistener> 
   398  2.3210e-01  1.5588e-03  1.6917e-03  1.0487e-03  1.8304e-05  3.8765e-03  1.1945e-02  0:00:02    2

  iter  continuity  x-velocity  y-velocity  z-velocity      energy           k     epsilon     time/iter
<aaslistener> 
   399  2.3602e-01  1.5682e-03  1.7040e-03  1.0570e-03  1.8251e-05  3.9609e-03  1.2374e-02  0:00:01    1
<aaslistener> 
   400  2.3705e-01  1.5688e-03  1.7036e-03  1.0546e-03  1.7983e-05  4.0023e-03  1.2624e-02  0:00:00    0
/define/boundary/velocity-inlet (inlet)
inlet no no yes yes no 0.8333333333333334 no 0 no 303.15 no no yes 5 10/solve/initialize/compute-defaults/all-zonessolve iterate 100<aaslistener> 

  iter  continuity  x-velocity  y-velocity  z-velocity      energy           k     epsilon     time/iter
<aaslistener> 
   400  2.3705e-01  1.5688e-03  1.7036e-03  1.0546e-03  1.7983e-05  4.0023e-03  1.2624e-02  0:01:26  100
<aaslistener> 
   401  2.3655e-01  1.5677e-03  1.6999e-03  1.0402e-03  2.6924e-04  4.0246e-03  1.2691e-02  0:01:28   99
<aaslistener> 
   402  2.3580e-01  1.5738e-03  1.7041e-03  1.0317e-03  2.4859e-04  4.0560e-03  1.2615e-02  0:01:09   98
<aaslistener> 
   403  2.3910e-01  1.5984e-03  1.7246e-03  1.0282e-03  2.2258e-04  4.1282e-03  1.2595e-02  0:01:14   97
<aaslistener> 
   404  2.4556e-01  1.6495e-03  1.7597e-03  1.0352e-03  1.9064e-04  4.2236e-03  1.2766e-02  0:01:18   96
<aaslistener> 
   405  2.5417e-01  1.7154e-03  1.8071e-03  1.0545e-03  1.5766e-04  4.3251e-03  1.2968e-02  0:01:21   95
<aaslistener> 
   406  2.6339e-01  1.7894e-03  1.8543e-03  1.0931e-03  1.2831e-04  4.4274e-03  1.3164e-02  0:01:23   94
<aaslistener> 
   407  2.7323e-01  1.8623e-03  1.8948e-03  1.1477e-03  1.0488e-04  4.5146e-03  1.3371e-02  0:01:06   93
<aaslistener> 
   408  2.8093e-01  1.9290e-03  1.9260e-03  1.2120e-03  8.8119e-05  4.5925e-03  1.3624e-02  0:01:10   92
<aaslistener> 
   409  2.9138e-01  1.9862e-03  1.9605e-03  1.2753e-03  7.7879e-05  4.6765e-03  1.4018e-02  0:01:14   91
<aaslistener> 
   410  3.0077e-01  2.0294e-03  1.9946e-03  1.3346e-03  7.2399e-05  4.7679e-03  1.4470e-02  0:01:16   90

  iter  continuity  x-velocity  y-velocity  z-velocity      energy           k     epsilon     time/iter
<aaslistener> 
   411  3.1125e-01  2.0571e-03  2.0298e-03  1.3875e-03  6.9768e-05  4.8728e-03  1.5177e-02  0:01:18   89
<aaslistener> 
   412  3.1973e-01  2.0722e-03  2.0743e-03  1.4297e-03  6.8421e-05  4.9852e-03  1.5901e-02  0:01:19   88
<aaslistener> 
   413  3.2955e-01  2.0785e-03  2.1225e-03  1.4594e-03  6.7608e-05  5.0602e-03  1.6621e-02  0:01:03   87
<aaslistener> 
   414  3.3734e-01  2.0831e-03  2.1735e-03  1.4796e-03  6.7005e-05  5.1090e-03  1.7173e-02  0:01:07   86
<aaslistener> 
   415  3.4465e-01  2.0934e-03  2.2343e-03  1.4996e-03  6.6357e-05  5.1750e-03  1.7630e-02  0:01:10   85
<aaslistener> 
   416  3.5043e-01  2.1191e-03  2.3068e-03  1.5263e-03  6.5633e-05  5.2595e-03  1.8041e-02  0:01:12   84
<aaslistener> 
   417  3.5734e-01  2.1535e-03  2.3930e-03  1.5439e-03  6.4926e-05  5.3400e-03  1.8266e-02  0:01:14   83
<aaslistener> 
   418  3.6079e-01  2.1879e-03  2.4805e-03  1.5495e-03  6.4112e-05  5.4576e-03  1.8576e-02  0:00:58   82
<aaslistener> 
   419  3.6340e-01  2.2247e-03  2.5661e-03  1.5619e-03  6.3096e-05  5.5603e-03  1.8700e-02  0:01:02   81
<aaslistener> 
   420  3.6382e-01  2.2518e-03  2.6481e-03  1.5630e-03  6.1868e-05  5.6063e-03  1.8665e-02  0:01:05   80
<aaslistener> 
   421  3.6217e-01  2.2605e-03  2.7075e-03  1.5690e-03  6.0451e-05  5.6379e-03  1.8632e-02  0:01:07   79

  iter  continuity  x-velocity  y-velocity  z-velocity      energy           k     epsilon     time/iter
<aaslistener> 
   422  3.6074e-01  2.2483e-03  2.7411e-03  1.5597e-03  5.8948e-05  5.6561e-03  1.8737e-02  0:01:09   78
<aaslistener> 
   423  3.5798e-01  2.2260e-03  2.7518e-03  1.5489e-03  5.7333e-05  5.6787e-03  1.8963e-02  0:00:54   77
<aaslistener> 
   424  3.5358e-01  2.2055e-03  2.7424e-03  1.5391e-03  5.5844e-05  5.7021e-03  1.9342e-02  0:00:58   76
<aaslistener> 
   425  3.4557e-01  2.1852e-03  2.7270e-03  1.5288e-03  5.4506e-05  5.7288e-03  1.9696e-02  0:01:01   75
<aaslistener> 
   426  3.3915e-01  2.1783e-03  2.7118e-03  1.5361e-03  5.3594e-05  5.7938e-03  2.0027e-02  0:01:03   74
<aaslistener> 
   427  3.3417e-01  2.1796e-03  2.7029e-03  1.5700e-03  5.3276e-05  5.9093e-03  2.0315e-02  0:01:04   73
<aaslistener> 
   428  3.3219e-01  2.1864e-03  2.7052e-03  1.6163e-03  5.3350e-05  5.9909e-03  2.0250e-02  0:01:05   72
<aaslistener> 
   429  3.3346e-01  2.2044e-03  2.7077e-03  1.6708e-03  5.3485e-05  6.0629e-03  2.0024e-02  0:01:06   71
<aaslistener> 
   430  3.3435e-01  2.2284e-03  2.7066e-03  1.7281e-03  5.3433e-05  6.0312e-03  1.9461e-02  0:00:52   70
<aaslistener> 
   431  3.3589e-01  2.2533e-03  2.6855e-03  1.7608e-03  5.2876e-05  5.9160e-03  1.8573e-02  0:00:55   69
<aaslistener> 
   432  3.3778e-01  2.2689e-03  2.6471e-03  1.7649e-03  5.1821e-05  5.7198e-03  1.7465e-02  0:00:57   68

  iter  continuity  x-velocity  y-velocity  z-velocity      energy           k     epsilon     time/iter
<aaslistener> 
   433  3.4104e-01  2.2675e-03  2.5771e-03  1.7418e-03  5.0354e-05  5.5108e-03  1.6632e-02  0:00:58   67
<aaslistener> 
   434  3.3998e-01  2.2476e-03  2.4851e-03  1.6950e-03  4.8668e-05  5.3146e-03  1.6125e-02  0:00:59   66
<aaslistener> 
   435  3.3594e-01  2.2107e-03  2.3752e-03  1.6403e-03  4.6839e-05  5.1277e-03  1.5744e-02  0:00:46   65
<aaslistener> 
   436  3.2862e-01  2.1704e-03  2.2582e-03  1.5786e-03  4.4869e-05  4.9474e-03  1.5455e-02  0:00:49   64
<aaslistener> 
   437  3.1966e-01  2.1233e-03  2.1309e-03  1.5164e-03  4.3011e-05  4.7622e-03  1.5108e-02  0:00:51   63
<aaslistener> 
   438  3.1027e-01  2.0782e-03  2.0108e-03  1.4650e-03  4.1414e-05  4.5501e-03  1.4519e-02  0:00:53   62
<aaslistener> 
   439  3.0073e-01  2.0271e-03  1.9132e-03  1.4214e-03  4.0237e-05  4.3506e-03  1.3917e-02  0:00:54   61
<aaslistener> 
   440  2.9037e-01  1.9793e-03  1.8456e-03  1.3938e-03  3.9284e-05  4.2105e-03  1.3395e-02  0:00:54   60
<aaslistener> 
   441  2.8320e-01  1.9337e-03  1.8116e-03  1.3751e-03  3.8418e-05  4.1546e-03  1.2999e-02  0:00:43   59
<aaslistener> 
   442  2.7672e-01  1.8949e-03  1.8007e-03  1.3662e-03  3.7614e-05  4.1848e-03  1.2859e-02  0:00:45   58
<aaslistener> 
   443  2.7217e-01  1.8622e-03  1.8131e-03  1.3687e-03  3.6721e-05  4.2207e-03  1.2773e-02  0:00:47   57

  iter  continuity  x-velocity  y-velocity  z-velocity      energy           k     epsilon     time/iter
<aaslistener> 
   444  2.6838e-01  1.8349e-03  1.8389e-03  1.3682e-03  3.5743e-05  4.2678e-03  1.2778e-02  0:00:48   56
<aaslistener> 
   445  2.6552e-01  1.8113e-03  1.8685e-03  1.3584e-03  3.4742e-05  4.3270e-03  1.2977e-02  0:00:49   55
<aaslistener> 
   446  2.6372e-01  1.7838e-03  1.8972e-03  1.3381e-03  3.3729e-05  4.3735e-03  1.3234e-02  0:00:49   54
<aaslistener> 
   447  2.5970e-01  1.7537e-03  1.9180e-03  1.3124e-03  3.2662e-05  4.4241e-03  1.3567e-02  0:00:39   53
<aaslistener> 
   448  2.5805e-01  1.7236e-03  1.9247e-03  1.2803e-03  3.1629e-05  4.4578e-03  1.3937e-02  0:00:41   52
<aaslistener> 
   449  2.5650e-01  1.6942e-03  1.9186e-03  1.2436e-03  3.0583e-05  4.4840e-03  1.4406e-02  0:00:42   51
<aaslistener> 
   450  2.5613e-01  1.6666e-03  1.8945e-03  1.2040e-03  2.9516e-05  4.4745e-03  1.4814e-02  0:00:43   50
<aaslistener> 
   451  2.5443e-01  1.6377e-03  1.8564e-03  1.1651e-03  2.8442e-05  4.3971e-03  1.4946e-02  0:00:44   49
<aaslistener> 
   452  2.5187e-01  1.6062e-03  1.8066e-03  1.1229e-03  2.7313e-05  4.2694e-03  1.4718e-02  0:00:44   48
<aaslistener> 
   453  2.4728e-01  1.5803e-03  1.7369e-03  1.0863e-03  2.6221e-05  4.1132e-03  1.4153e-02  0:00:34   47
<aaslistener> 
   454  2.4099e-01  1.5578e-03  1.6512e-03  1.0522e-03  2.5214e-05  3.9378e-03  1.3359e-02  0:00:36   46

  iter  continuity  x-velocity  y-velocity  z-velocity      energy           k     epsilon     time/iter
<aaslistener> 
   455  2.3385e-01  1.5351e-03  1.5568e-03  1.0205e-03  2.4396e-05  3.7666e-03  1.2461e-02  0:00:37   45
<aaslistener> 
   456  2.2521e-01  1.5137e-03  1.4624e-03  9.9449e-04  2.3677e-05  3.6150e-03  1.1534e-02  0:00:38   44
<aaslistener> 
   457  2.1667e-01  1.4904e-03  1.3736e-03  9.7127e-04  2.2978e-05  3.4858e-03  1.0708e-02  0:00:38   43
<aaslistener> 
   458  2.0778e-01  1.4620e-03  1.2978e-03  9.4717e-04  2.2374e-05  3.3607e-03  1.0044e-02  0:00:38   42
<aaslistener> 
   459  1.9935e-01  1.4224e-03  1.2385e-03  9.2673e-04  2.1821e-05  3.2418e-03  9.5006e-03  0:00:30   41
<aaslistener> 
   460  1.9322e-01  1.3750e-03  1.1935e-03  9.1195e-04  2.1174e-05  3.1258e-03  9.1854e-03  0:00:31   40
<aaslistener> 
   461  1.8742e-01  1.3242e-03  1.1553e-03  8.9397e-04  2.0527e-05  3.0074e-03  8.9119e-03  0:00:32   39
<aaslistener> 
   462  1.8314e-01  1.2708e-03  1.1219e-03  8.7196e-04  1.9860e-05  2.8766e-03  8.6766e-03  0:00:33   38
<aaslistener> 
   463  1.7918e-01  1.2166e-03  1.0937e-03  8.4288e-04  1.9195e-05  2.7486e-03  8.4045e-03  0:00:33   37
<aaslistener> 
   464  1.7471e-01  1.1654e-03  1.0781e-03  8.0872e-04  1.8615e-05  2.6369e-03  8.0901e-03  0:00:26   36
<aaslistener> 
   465  1.6931e-01  1.1192e-03  1.0761e-03  7.7188e-04  1.8110e-05  2.5513e-03  7.8200e-03  0:00:27   35

  iter  continuity  x-velocity  y-velocity  z-velocity      energy           k     epsilon     time/iter
<aaslistener> 
   466  1.6346e-01  1.0791e-03  1.0853e-03  7.3728e-04  1.7651e-05  2.4926e-03  7.7260e-03  0:00:28   34
<aaslistener> 
   467  1.5819e-01  1.0437e-03  1.1028e-03  7.1024e-04  1.7289e-05  2.4620e-03  7.7400e-03  0:00:28   33
<aaslistener> 
   468  1.5509e-01  1.0199e-03  1.1264e-03  6.9551e-04  1.7021e-05  2.4483e-03  7.8773e-03  0:00:28   32
<aaslistener> 
   469  1.5451e-01  1.0116e-03  1.1494e-03  6.9801e-04  1.6799e-05  2.4481e-03  8.0631e-03  0:00:22   31
<aaslistener> 
   470  1.5709e-01  1.0187e-03  1.1705e-03  7.1187e-04  1.6574e-05  2.4559e-03  8.2170e-03  0:00:23   30
<aaslistener> 
   471  1.5990e-01  1.0370e-03  1.1809e-03  7.2958e-04  1.6389e-05  2.4572e-03  8.2961e-03  0:00:24   29
<aaslistener> 
   472  1.6224e-01  1.0635e-03  1.1783e-03  7.4788e-04  1.6247e-05  2.4422e-03  8.2264e-03  0:00:24   28
<aaslistener> 
   473  1.6444e-01  1.1021e-03  1.1653e-03  7.6928e-04  1.6211e-05  2.4423e-03  8.0315e-03  0:00:24   27
<aaslistener> 
   474  1.6461e-01  1.1513e-03  1.1456e-03  7.9003e-04  1.6245e-05  2.4581e-03  7.8118e-03  0:00:23   26
<aaslistener> 
   475  1.6539e-01  1.2059e-03  1.1273e-03  8.0676e-04  1.6302e-05  2.4928e-03  7.6685e-03  0:00:18   25
<aaslistener> 
   476  1.6776e-01  1.2529e-03  1.1162e-03  8.1601e-04  1.6341e-05  2.5228e-03  7.5161e-03  0:00:19   24

  iter  continuity  x-velocity  y-velocity  z-velocity      energy           k     epsilon     time/iter
<aaslistener> 
   477  1.7040e-01  1.2895e-03  1.1046e-03  8.1694e-04  1.6312e-05  2.5581e-03  7.3392e-03  0:00:19   23
<aaslistener> 
   478  1.7299e-01  1.3109e-03  1.0918e-03  8.0769e-04  1.6195e-05  2.5636e-03  7.0517e-03  0:00:19   22
<aaslistener> 
   479  1.7405e-01  1.3136e-03  1.0767e-03  7.9291e-04  1.6024e-05  2.5664e-03  6.7706e-03  0:00:19   21
<aaslistener> 
   480  1.7396e-01  1.3002e-03  1.0606e-03  7.7859e-04  1.5705e-05  2.5515e-03  6.5053e-03  0:00:18   20
<aaslistener> 
   481  1.7244e-01  1.2740e-03  1.0425e-03  7.6268e-04  1.5325e-05  2.5085e-03  6.2236e-03  0:00:14   19
<aaslistener> 
   482  1.6923e-01  1.2411e-03  1.0234e-03  7.4369e-04  1.4876e-05  2.4649e-03  6.1190e-03  0:00:14   18
<aaslistener> 
   483  1.6548e-01  1.2037e-03  1.0066e-03  7.2678e-04  1.4472e-05  2.4012e-03  6.0574e-03  0:00:14   17
<aaslistener> 
   484  1.6149e-01  1.1593e-03  9.9375e-04  7.0972e-04  1.4227e-05  2.3154e-03  5.9976e-03  0:00:14   16
<aaslistener> 
   485  1.5772e-01  1.1200e-03  9.8219e-04  6.9526e-04  1.4093e-05  2.2539e-03  5.9289e-03  0:00:13   15
<aaslistener> 
   486  1.5468e-01  1.0797e-03  9.7331e-04  6.8563e-04  1.3973e-05  2.2163e-03  5.9459e-03  0:00:13   14
<aaslistener> 
   487  1.5212e-01  1.0378e-03  9.6709e-04  6.8105e-04  1.3938e-05  2.2094e-03  6.0604e-03  0:00:12   13

  iter  continuity  x-velocity  y-velocity  z-velocity      energy           k     epsilon     time/iter
<aaslistener> 
   488  1.5050e-01  9.9882e-04  9.6270e-04  6.7893e-04  1.3951e-05  2.2085e-03  6.1865e-03  0:00:09   12
<aaslistener> 
   489  1.4927e-01  9.6833e-04  9.6024e-04  6.7960e-04  1.3979e-05  2.2109e-03  6.3495e-03  0:00:09   11
<aaslistener> 
   490  1.4904e-01  9.4366e-04  9.6015e-04  6.8170e-04  1.4077e-05  2.2142e-03  6.4790e-03  0:00:08   10
<aaslistener> 
   491  1.4943e-01  9.2791e-04  9.6160e-04  6.8393e-04  1.4197e-05  2.2125e-03  6.5200e-03  0:00:08    9
<aaslistener> 
   492  1.5058e-01  9.2259e-04  9.6337e-04  6.8802e-04  1.4317e-05  2.2048e-03  6.4875e-03  0:00:07    8
<aaslistener> 
   493  1.5144e-01  9.2542e-04  9.6583e-04  6.9420e-04  1.4509e-05  2.1909e-03  6.3777e-03  0:00:06    7
<aaslistener> 
   494  1.5233e-01  9.3454e-04  9.7071e-04  7.0326e-04  1.4701e-05  2.1809e-03  6.2463e-03  0:00:04    6
<aaslistener> 
   495  1.5364e-01  9.4941e-04  9.8036e-04  7.1540e-04  1.4909e-05  2.1810e-03  6.1375e-03  0:00:04    5
<aaslistener> 
   496  1.5539e-01  9.6790e-04  9.9360e-04  7.2743e-04  1.5163e-05  2.1980e-03  6.0889e-03  0:00:03    4
<aaslistener> 
   497  1.5819e-01  9.8955e-04  1.0066e-03  7.4184e-04  1.5422e-05  2.2251e-03  6.1254e-03  0:00:03    3
<aaslistener> 
   498  1.6155e-01  1.0150e-03  1.0191e-03  7.5771e-04  1.5674e-05  2.2570e-03  6.2326e-03  0:00:02    2

  iter  continuity  x-velocity  y-velocity  z-velocity      energy           k     epsilon     time/iter
<aaslistener> 
   499  1.6563e-01  1.0432e-03  1.0335e-03  7.7274e-04  1.5944e-05  2.2940e-03  6.3484e-03  0:00:01    1
<aaslistener> 
   500  1.6947e-01  1.0738e-03  1.0510e-03  7.8511e-04  1.6252e-05  2.3224e-03  6.4760e-03  0:00:00    0
/define/boundary/velocity-inlet (inlet)
inlet no no yes yes no 0.8333333333333334 no 0 no 283.15 no no yes 5 10/solve/initialize/compute-defaults/all-zonessolve iterate 100<aaslistener> 

  iter  continuity  x-velocity  y-velocity  z-velocity      energy           k     epsilon     time/iter
<aaslistener> 
   500  1.6947e-01  1.0738e-03  1.0510e-03  7.8511e-04  1.6252e-05  2.3224e-03  6.4760e-03  0:01:17  100
<aaslistener> 
   501  1.7428e-01  1.1033e-03  1.0720e-03  7.9495e-04  2.5807e-04  2.3440e-03  6.5853e-03  0:01:21   99
<aaslistener> 
   502  1.7837e-01  1.1293e-03  1.0952e-03  8.0193e-04  2.4019e-04  2.3595e-03  6.6545e-03  0:01:24   98
<aaslistener> 
   503  1.8170e-01  1.1541e-03  1.1182e-03  8.0786e-04  2.1577e-04  2.3658e-03  6.7075e-03  0:01:26   97
<aaslistener> 
   504  1.8518e-01  1.1741e-03  1.1390e-03  8.1379e-04  1.8501e-04  2.3581e-03  6.7181e-03  0:01:27   96
<aaslistener> 
   505  1.8815e-01  1.1903e-03  1.1571e-03  8.1869e-04  1.5261e-04  2.3465e-03  6.7229e-03  0:01:09   95
<aaslistener> 
   506  1.8930e-01  1.2036e-03  1.1725e-03  8.2285e-04  1.2324e-04  2.3401e-03  6.7390e-03  0:01:13   94
<aaslistener> 
   507  1.9035e-01  1.2145e-03  1.1850e-03  8.2502e-04  9.9719e-05  2.3474e-03  6.8051e-03  0:01:17   93
<aaslistener> 
   508  1.9053e-01  1.2237e-03  1.1958e-03  8.2574e-04  8.1995e-05  2.3749e-03  6.9701e-03  0:01:19   92
<aaslistener> 
   509  1.9098e-01  1.2315e-03  1.2075e-03  8.2503e-04  6.9759e-05  2.4183e-03  7.2075e-03  0:01:21   91
<aaslistener> 
   510  1.9147e-01  1.2368e-03  1.2208e-03  8.2373e-04  6.1675e-05  2.4756e-03  7.5111e-03  0:01:04   90

  iter  continuity  x-velocity  y-velocity  z-velocity      energy           k     epsilon     time/iter
<aaslistener> 
   511  1.9103e-01  1.2428e-03  1.2369e-03  8.2398e-04  5.6527e-05  2.5463e-03  7.8716e-03  0:01:08   89
<aaslistener> 
   512  1.9057e-01  1.2524e-03  1.2599e-03  8.2829e-04  5.3406e-05  2.6360e-03  8.2847e-03  0:01:12   88
<aaslistener> 
   513  1.9190e-01  1.2608e-03  1.2891e-03  8.3997e-04  5.1531e-05  2.7241e-03  8.7007e-03  0:01:14   87
<aaslistener> 
   514  1.9336e-01  1.2687e-03  1.3224e-03  8.5455e-04  5.0302e-05  2.7968e-03  9.0250e-03  0:01:16   86
<aaslistener> 
   515  1.9435e-01  1.2762e-03  1.3608e-03  8.7486e-04  4.9326e-05  2.8631e-03  9.3384e-03  0:01:17   85
<aaslistener> 
   516  1.9565e-01  1.2837e-03  1.3999e-03  9.0044e-04  4.8413e-05  2.9099e-03  9.5941e-03  0:01:01   84
<aaslistener> 
   517  1.9754e-01  1.2922e-03  1.4349e-03  9.2301e-04  4.7377e-05  2.9224e-03  9.6922e-03  0:01:05   83
<aaslistener> 
   518  2.0135e-01  1.3014e-03  1.4625e-03  9.4248e-04  4.6250e-05  2.9111e-03  9.6682e-03  0:01:08   82
<aaslistener> 
   519  2.0595e-01  1.3117e-03  1.4789e-03  9.6258e-04  4.5060e-05  2.8824e-03  9.6030e-03  0:01:10   81
<aaslistener> 
   520  2.1077e-01  1.3197e-03  1.4849e-03  9.8220e-04  4.3847e-05  2.8346e-03  9.4557e-03  0:01:11   80
<aaslistener> 
   521  2.1409e-01  1.3239e-03  1.4808e-03  9.9734e-04  4.2647e-05  2.7687e-03  9.2277e-03  0:00:56   79

  iter  continuity  x-velocity  y-velocity  z-velocity      energy           k     epsilon     time/iter
<aaslistener> 
   522  2.1663e-01  1.3242e-03  1.4661e-03  1.0063e-03  4.1432e-05  2.6962e-03  8.9314e-03  0:01:00   78
<aaslistener> 
   523  2.1659e-01  1.3177e-03  1.4413e-03  1.0083e-03  4.0310e-05  2.6183e-03  8.6093e-03  0:01:03   77
<aaslistener> 
   524  2.1489e-01  1.3063e-03  1.4114e-03  1.0016e-03  3.9207e-05  2.5407e-03  8.3034e-03  0:01:05   76
<aaslistener> 
   525  2.1172e-01  1.2883e-03  1.3741e-03  9.8940e-04  3.8070e-05  2.4695e-03  8.0826e-03  0:01:06   75
<aaslistener> 
   526  2.0918e-01  1.2632e-03  1.3352e-03  9.7601e-04  3.6977e-05  2.3996e-03  7.8939e-03  0:01:07   74
<aaslistener> 
   527  2.0543e-01  1.2334e-03  1.2920e-03  9.5971e-04  3.5922e-05  2.3337e-03  7.6724e-03  0:00:53   73
<aaslistener> 
   528  2.0162e-01  1.2004e-03  1.2501e-03  9.4023e-04  3.4999e-05  2.2747e-03  7.4177e-03  0:00:56   72
<aaslistener> 
   529  1.9713e-01  1.1675e-03  1.2128e-03  9.1886e-04  3.4166e-05  2.2375e-03  7.1549e-03  0:00:58   71
<aaslistener> 
   530  1.9282e-01  1.1410e-03  1.1837e-03  8.9877e-04  3.3494e-05  2.2208e-03  6.9337e-03  0:01:00   70
<aaslistener> 
   531  1.8842e-01  1.1262e-03  1.1607e-03  8.8044e-04  3.2958e-05  2.2142e-03  6.7464e-03  0:01:01   69
<aaslistener> 
   532  1.8535e-01  1.1233e-03  1.1417e-03  8.6494e-04  3.2509e-05  2.2123e-03  6.5882e-03  0:01:02   68

  iter  continuity  x-velocity  y-velocity  z-velocity      energy           k     epsilon     time/iter
<aaslistener> 
   533  1.8377e-01  1.1265e-03  1.1267e-03  8.5360e-04  3.2056e-05  2.2056e-03  6.4496e-03  0:00:49   67
<aaslistener> 
   534  1.8234e-01  1.1322e-03  1.1126e-03  8.4490e-04  3.1530e-05  2.1973e-03  6.3203e-03  0:00:52   66
<aaslistener> 
   535  1.8174e-01  1.1400e-03  1.0984e-03  8.3857e-04  3.0882e-05  2.1779e-03  6.1755e-03  0:00:54   65
<aaslistener> 
   536  1.8073e-01  1.1444e-03  1.0847e-03  8.3523e-04  3.0163e-05  2.1463e-03  6.0173e-03  0:00:55   64
<aaslistener> 
   537  1.7991e-01  1.1459e-03  1.0713e-03  8.3240e-04  2.9334e-05  2.1070e-03  5.8513e-03  0:00:56   63
<aaslistener> 
   538  1.7953e-01  1.1445e-03  1.0607e-03  8.3022e-04  2.8400e-05  2.0678e-03  5.6812e-03  0:00:56   62
<aaslistener> 
   539  1.7923e-01  1.1420e-03  1.0516e-03  8.2891e-04  2.7456e-05  2.0392e-03  5.5803e-03  0:00:44   61
<aaslistener> 
   540  1.7790e-01  1.1397e-03  1.0474e-03  8.2792e-04  2.6545e-05  2.0317e-03  5.6362e-03  0:00:47   60
<aaslistener> 
   541  1.7745e-01  1.1399e-03  1.0508e-03  8.2733e-04  2.5634e-05  2.0375e-03  5.7589e-03  0:00:49   59
<aaslistener> 
   542  1.7628e-01  1.1403e-03  1.0602e-03  8.2803e-04  2.4839e-05  2.0609e-03  5.9035e-03  0:00:50   58
<aaslistener> 
   543  1.7450e-01  1.1417e-03  1.0739e-03  8.2665e-04  2.4107e-05  2.1057e-03  6.0957e-03  0:00:51   57

  iter  continuity  x-velocity  y-velocity  z-velocity      energy           k     epsilon     time/iter
<aaslistener> 
   544  1.7398e-01  1.1426e-03  1.0934e-03  8.2638e-04  2.3466e-05  2.1656e-03  6.3369e-03  0:00:40   56
<aaslistener> 
   545  1.7363e-01  1.1430e-03  1.1162e-03  8.2573e-04  2.2926e-05  2.2348e-03  6.6092e-03  0:00:42   55
<aaslistener> 
   546  1.7337e-01  1.1445e-03  1.1421e-03  8.2603e-04  2.2417e-05  2.3117e-03  6.9057e-03  0:00:44   54
<aaslistener> 
   547  1.7406e-01  1.1481e-03  1.1714e-03  8.2926e-04  2.1939e-05  2.3943e-03  7.2406e-03  0:00:45   53
<aaslistener> 
   548  1.7455e-01  1.1552e-03  1.2040e-03  8.3455e-04  2.1503e-05  2.4802e-03  7.6211e-03  0:00:46   52
<aaslistener> 
   549  1.7512e-01  1.1687e-03  1.2418e-03  8.4301e-04  2.1127e-05  2.5720e-03  8.0116e-03  0:00:36   51
<aaslistener> 
   550  1.7564e-01  1.1914e-03  1.2804e-03  8.5390e-04  2.0835e-05  2.6670e-03  8.3997e-03  0:00:38   50
<aaslistener> 
   551  1.7659e-01  1.2183e-03  1.3202e-03  8.7193e-04  2.0673e-05  2.7542e-03  8.7900e-03  0:00:40   49
<aaslistener> 
   552  1.7910e-01  1.2502e-03  1.3602e-03  8.9530e-04  2.0690e-05  2.8356e-03  9.1739e-03  0:00:41   48
<aaslistener> 
[...]
<aaslistener> 
   851  2.3172e-01  1.8034e-03  2.0354e-03  1.2107e-03  2.9959e-05  4.5608e-03  1.4432e-02  0:00:35   49
<aaslistener> 
   852  2.3413e-01  1.8112e-03  2.0332e-03  1.2230e-03  2.9465e-05  4.5454e-03  1.4192e-02  0:00:37   48
<aaslistener> 
   853  2.3604e-01  1.8029e-03  2.0151e-03  1.2194e-03  2.8920e-05  4.4784e-03  1.3931e-02  0:00:38   47
<aaslistener> 
   854  2.3662e-01  1.7800e-03  1.9787e-03  1.2055e-03  2.8215e-05  4.3450e-03  1.3531e-02  0:00:39   46

  iter  continuity  x-velocity  y-velocity  z-velocity      energy           k     epsilon     time/iter
<aaslistener> 
   855  2.3560e-01  1.7500e-03  1.9308e-03  1.1811e-03  2.7379e-05  4.1854e-03  1.3089e-02  0:00:40   45
<aaslistener> 
   856  2.3243e-01  1.7151e-03  1.8756e-03  1.1522e-03  2.6419e-05  4.0029e-03  1.2599e-02  0:00:40   44
<aaslistener> 
   857  2.2649e-01  1.6782e-03  1.8153e-03  1.1198e-03  2.5459e-05  3.8159e-03  1.2011e-02  0:00:31   43
<aaslistener> 
   858  2.2096e-01  1.6540e-03  1.7479e-03  1.0863e-03  2.4563e-05  3.6488e-03  1.1384e-02  0:00:33   42
<aaslistener> 
   859  2.1556e-01  1.6398e-03  1.6833e-03  1.0526e-03  2.3697e-05  3.5267e-03  1.0921e-02  0:00:34   41
<aaslistener> 
   860  2.1009e-01  1.6264e-03  1.6253e-03  1.0239e-03  2.2858e-05  3.4391e-03  1.0732e-02  0:00:34   40
<aaslistener> 
   861  2.0562e-01  1.6083e-03  1.5734e-03  9.9643e-04  2.2059e-05  3.3670e-03  1.0690e-02  0:00:35   39
<aaslistener> 
   862  2.0132e-01  1.5805e-03  1.5311e-03  9.6925e-04  2.1267e-05  3.3269e-03  1.0669e-02  0:00:27   38
<aaslistener> 
   863  1.9687e-01  1.5504e-03  1.4981e-03  9.4591e-04  2.0567e-05  3.2949e-03  1.0668e-02  0:00:28   37
<aaslistener> 
   864  1.9246e-01  1.5169e-03  1.4758e-03  9.2355e-04  1.9975e-05  3.2986e-03  1.0727e-02  0:00:29   36
<aaslistener> 
   865  1.8877e-01  1.4822e-03  1.4659e-03  9.0326e-04  1.9538e-05  3.3113e-03  1.0926e-02  0:00:30   35

  iter  continuity  x-velocity  y-velocity  z-velocity      energy           k     epsilon     time/iter
<aaslistener> 
   866  1.8596e-01  1.4519e-03  1.4742e-03  8.9255e-04  1.9222e-05  3.3256e-03  1.1245e-02  0:00:30   34
<aaslistener> 
   867  1.8417e-01  1.4284e-03  1.4832e-03  8.9593e-04  1.8974e-05  3.3478e-03  1.1493e-02  0:00:30   33
<aaslistener> 
   868  1.8459e-01  1.4143e-03  1.4989e-03  9.0818e-04  1.8770e-05  3.4031e-03  1.1794e-02  0:00:23   32
<aaslistener> 
   869  1.8695e-01  1.4068e-03  1.5105e-03  9.2521e-04  1.8529e-05  3.4660e-03  1.2006e-02  0:00:24   31
<aaslistener> 
   870  1.8903e-01  1.4033e-03  1.5118e-03  9.4469e-04  1.8285e-05  3.5184e-03  1.2058e-02  0:00:25   30
<aaslistener> 
   871  1.9225e-01  1.4036e-03  1.4993e-03  9.6347e-04  1.8105e-05  3.5633e-03  1.1979e-02  0:00:25   29
<aaslistener> 
   872  1.9462e-01  1.4159e-03  1.4752e-03  9.8411e-04  1.7978e-05  3.5870e-03  1.1718e-02  0:00:25   28
<aaslistener> 
   873  1.9783e-01  1.4444e-03  1.4395e-03  1.0059e-03  1.7977e-05  3.6414e-03  1.1449e-02  0:00:25   27
<aaslistener> 
   874  2.0097e-01  1.4862e-03  1.4072e-03  1.0235e-03  1.8254e-05  3.7104e-03  1.1183e-02  0:00:19   26
<aaslistener> 
   875  2.0426e-01  1.5325e-03  1.3908e-03  1.0421e-03  1.8725e-05  3.8097e-03  1.0973e-02  0:00:20   25
<aaslistener> 
   876  2.0709e-01  1.5790e-03  1.3991e-03  1.0641e-03  1.9227e-05  3.9103e-03  1.0939e-02  0:00:20   24

  iter  continuity  x-velocity  y-velocity  z-velocity      energy           k     epsilon     time/iter
<aaslistener> 
   877  2.1011e-01  1.6175e-03  1.4088e-03  1.0866e-03  1.9544e-05  4.0037e-03  1.1358e-02  0:00:20   23
<aaslistener> 
   878  2.1213e-01  1.6414e-03  1.4253e-03  1.1016e-03  1.9664e-05  3.9997e-03  1.1644e-02  0:00:20   22
<aaslistener> 
   879  2.1200e-01  1.6435e-03  1.4324e-03  1.1143e-03  1.9458e-05  3.9504e-03  1.1706e-02  0:00:15   21
<aaslistener> 
   880  2.1119e-01  1.6212e-03  1.4263e-03  1.1180e-03  1.9176e-05  3.8456e-03  1.1648e-02  0:00:15   20
<aaslistener> 
   881  2.1276e-01  1.5784e-03  1.4047e-03  1.1109e-03  1.8789e-05  3.7175e-03  1.1495e-02  0:00:15   19
<aaslistener> 
   882  2.1193e-01  1.5170e-03  1.3695e-03  1.0862e-03  1.8214e-05  3.5348e-03  1.0990e-02  0:00:15   18
<aaslistener> 
   883  2.0803e-01  1.4430e-03  1.3276e-03  1.0489e-03  1.7791e-05  3.3005e-03  1.0254e-02  0:00:15   17
<aaslistener> 
   884  2.0110e-01  1.3670e-03  1.2820e-03  1.0010e-03  1.7407e-05  3.0693e-03  9.4540e-03  0:00:14   16
<aaslistener> 
   885  1.9458e-01  1.3053e-03  1.2304e-03  9.5260e-04  1.7081e-05  2.8782e-03  8.7900e-03  0:00:11   15
<aaslistener> 
   886  1.8767e-01  1.2600e-03  1.1747e-03  9.0593e-04  1.6822e-05  2.7309e-03  8.2410e-03  0:00:11   14
<aaslistener> 
   887  1.8170e-01  1.2342e-03  1.1234e-03  8.6809e-04  1.6702e-05  2.6276e-03  7.7863e-03  0:00:11   13

  iter  continuity  x-velocity  y-velocity  z-velocity      energy           k     epsilon     time/iter
<aaslistener> 
   888  1.7707e-01  1.2218e-03  1.0836e-03  8.3998e-04  1.6668e-05  2.5666e-03  7.4268e-03  0:00:10   12
<aaslistener> 
   889  1.7261e-01  1.2162e-03  1.0613e-03  8.1768e-04  1.6667e-05  2.5450e-03  7.1701e-03  0:00:10   11
<aaslistener> 
   890  1.6927e-01  1.2148e-03  1.0555e-03  7.9874e-04  1.6689e-05  2.5586e-03  7.0660e-03  0:00:07   10
<aaslistener> 
   891  1.6666e-01  1.2148e-03  1.0644e-03  7.8134e-04  1.6671e-05  2.5772e-03  7.0902e-03  0:00:07    9
<aaslistener> 
   892  1.6433e-01  1.2134e-03  1.0841e-03  7.7327e-04  1.6675e-05  2.5884e-03  7.1405e-03  0:00:07    8
<aaslistener> 
   893  1.6300e-01  1.2066e-03  1.1120e-03  7.7334e-04  1.6635e-05  2.6036e-03  7.2406e-03  0:00:06    7
<aaslistener> 
   894  1.6420e-01  1.1914e-03  1.1391e-03  7.7866e-04  1.6529e-05  2.6134e-03  7.4185e-03  0:00:05    6
<aaslistener> 
   895  1.6605e-01  1.1695e-03  1.1588e-03  7.8438e-04  1.6370e-05  2.6183e-03  7.6194e-03  0:00:04    5
<aaslistener> 
   896  1.6759e-01  1.1451e-03  1.1700e-03  7.8851e-04  1.6187e-05  2.6162e-03  7.7941e-03  0:00:03    4
<aaslistener> 
   897  1.6870e-01  1.1195e-03  1.1704e-03  7.8429e-04  1.5894e-05  2.5953e-03  7.9004e-03  0:00:02    3
<aaslistener> 
   898  1.6921e-01  1.0917e-03  1.1600e-03  7.7154e-04  1.5525e-05  2.5588e-03  7.9189e-03  0:00:02    2

  iter  continuity  x-velocity  y-velocity  z-velocity      energy           k     epsilon     time/iter
<aaslistener> 
   899  1.6875e-01  1.0636e-03  1.1406e-03  7.5204e-04  1.5154e-05  2.4947e-03  7.8186e-03  0:00:01    1
<aaslistener> 
   900  1.6694e-01  1.0353e-03  1.1127e-03  7.2577e-04  1.4769e-05  2.4094e-03  7.6031e-03  0:00:00    0
/define/boundary/velocity-inlet (inlet)
inlet no no yes yes no 0.8333333333333334 no 0 no 283.15 no no yes 5 10/solve/initialize/compute-defaults/all-zonessolve iterate 100<aaslistener> 

  iter  continuity  x-velocity  y-velocity  z-velocity      energy           k     epsilon     time/iter
<aaslistener> 
   900  1.6694e-01  1.0353e-03  1.1127e-03  7.2577e-04  1.4769e-05  2.4094e-03  7.6031e-03  0:01:30  100
<aaslistener> 
   901  1.6375e-01  1.0062e-03  1.0784e-03  6.9864e-04  2.5596e-04  2.3105e-03  7.2766e-03  0:01:12   99
<aaslistener> 
   902  1.6069e-01  9.7752e-04  1.0409e-03  6.7348e-04  2.3819e-04  2.2055e-03  6.9183e-03  0:01:16   98
<aaslistener> 
   903  1.5755e-01  9.5052e-04  1.0044e-03  6.5203e-04  2.1487e-04  2.1026e-03  6.5745e-03  0:01:20   97
<aaslistener> 
   904  1.5395e-01  9.2594e-04  9.7193e-04  6.3784e-04  1.8569e-04  2.0085e-03  6.2476e-03  0:01:22   96
<aaslistener> 
   905  1.5004e-01  9.0707e-04  9.4580e-04  6.3467e-04  1.5479e-04  1.9276e-03  5.9286e-03  0:01:24   95
<aaslistener> 
   906  1.4665e-01  8.9601e-04  9.2908e-04  6.4101e-04  1.2605e-04  1.8704e-03  5.6480e-03  0:01:25   94
<aaslistener> 
   907  1.4493e-01  8.9335e-04  9.1810e-04  6.5339e-04  1.0247e-04  1.8342e-03  5.4595e-03  0:01:08   93
<aaslistener> 
   908  1.4443e-01  9.0120e-04  9.0897e-04  6.7066e-04  8.4393e-05  1.8188e-03  5.3651e-03  0:01:12   92
<aaslistener> 
   909  1.4556e-01  9.1800e-04  9.0335e-04  6.8850e-04  7.1506e-05  1.8220e-03  5.3286e-03  0:01:15   91
<aaslistener> 
   910  1.4765e-01  9.4100e-04  9.0099e-04  7.0472e-04  6.2859e-05  1.8426e-03  5.3669e-03  0:01:17   90

  iter  continuity  x-velocity  y-velocity  z-velocity      energy           k     epsilon     time/iter
<aaslistener> 
   911  1.5038e-01  9.6829e-04  9.0484e-04  7.1927e-04  5.7424e-05  1.8730e-03  5.4432e-03  0:01:19   89
<aaslistener> 
   912  1.5283e-01  9.9837e-04  9.1478e-04  7.3381e-04  5.4344e-05  1.9109e-03  5.5386e-03  0:01:20   88
<aaslistener> 
   913  1.5634e-01  1.0300e-03  9.3207e-04  7.4833e-04  5.2823e-05  1.9592e-03  5.6288e-03  0:01:03   87
<aaslistener> 
   914  1.6026e-01  1.0633e-03  9.5885e-04  7.6251e-04  5.1834e-05  2.0124e-03  5.7559e-03  0:01:07   86
<aaslistener> 
   915  1.6421e-01  1.0963e-03  9.9226e-04  7.7648e-04  5.1100e-05  2.0634e-03  5.9010e-03  0:01:10   85
<aaslistener> 
   916  1.6736e-01  1.1265e-03  1.0296e-03  7.8976e-04  5.0340e-05  2.1105e-03  6.0483e-03  0:01:12   84
<aaslistener> 
   917  1.7072e-01  1.1524e-03  1.0666e-03  8.0197e-04  4.9404e-05  2.1468e-03  6.1881e-03  0:01:14   83
<aaslistener> 
   918  1.7411e-01  1.1736e-03  1.1019e-03  8.1558e-04  4.8324e-05  2.1729e-03  6.3037e-03  0:01:15   82
<aaslistener> 
   919  1.7773e-01  1.1901e-03  1.1339e-03  8.3044e-04  4.7125e-05  2.1895e-03  6.3936e-03  0:00:59   81
<aaslistener> 
   920  1.8106e-01  1.2025e-03  1.1621e-03  8.4590e-04  4.5938e-05  2.1963e-03  6.4593e-03  0:01:03   80
<aaslistener> 
   921  1.8403e-01  1.2115e-03  1.1855e-03  8.6224e-04  4.4680e-05  2.1971e-03  6.4931e-03  0:01:05   79

  iter  continuity  x-velocity  y-velocity  z-velocity      energy           k     epsilon     time/iter
<aaslistener> 
   922  1.8731e-01  1.2189e-03  1.2012e-03  8.7720e-04  4.3375e-05  2.1916e-03  6.5047e-03  0:01:07   78
<aaslistener> 
   923  1.8979e-01  1.2226e-03  1.2115e-03  8.9121e-04  4.2022e-05  2.1847e-03  6.4932e-03  0:01:08   77
<aaslistener> 
   924  1.9275e-01  1.2238e-03  1.2152e-03  9.0084e-04  4.0656e-05  2.1700e-03  6.4560e-03  0:01:09   76
<aaslistener> 
   925  1.9452e-01  1.2230e-03  1.2122e-03  9.0496e-04  3.9281e-05  2.1494e-03  6.4082e-03  0:00:55   75
<aaslistener> 
   926  1.9533e-01  1.2193e-03  1.2026e-03  9.0142e-04  3.7925e-05  2.1273e-03  6.3545e-03  0:00:58   74
<aaslistener> 
   927  1.9499e-01  1.2115e-03  1.1889e-03  8.9156e-04  3.6603e-05  2.1205e-03  6.3161e-03  0:01:00   73
<aaslistener> 
   928  1.9396e-01  1.2038e-03  1.1792e-03  8.7599e-04  3.5344e-05  2.1460e-03  6.3608e-03  0:01:02   72
<aaslistener> 
   929  1.9174e-01  1.1971e-03  1.1772e-03  8.6030e-04  3.4245e-05  2.2064e-03  6.5241e-03  0:01:03   71
<aaslistener> 
   930  1.8944e-01  1.1979e-03  1.1874e-03  8.5114e-04  3.3384e-05  2.2928e-03  6.7985e-03  0:00:50   70
<aaslistener> 
   931  1.8863e-01  1.2113e-03  1.2088e-03  8.4941e-04  3.2818e-05  2.4110e-03  7.1865e-03  0:00:53   69
<aaslistener> 
   932  1.8890e-01  1.2366e-03  1.2419e-03  8.5609e-04  3.2418e-05  2.5497e-03  7.6909e-03  0:00:55   68

  iter  continuity  x-velocity  y-velocity  z-velocity      energy           k     epsilon     time/iter
<aaslistener> 
   933  1.8988e-01  1.2687e-03  1.2843e-03  8.6907e-04  3.2184e-05  2.6999e-03  8.2967e-03  0:00:57   67
<aaslistener> 
   934  1.9366e-01  1.3067e-03  1.3324e-03  8.9202e-04  3.2008e-05  2.8603e-03  8.9654e-03  0:00:58   66
<aaslistener> 
   935  1.9859e-01  1.3487e-03  1.3841e-03  9.2046e-04  3.1814e-05  3.0352e-03  9.6605e-03  0:00:59   65
<aaslistener> 
   936  2.0393e-01  1.3982e-03  1.4382e-03  9.5294e-04  3.1558e-05  3.2040e-03  1.0357e-02  0:00:46   64
<aaslistener> 
   937  2.1060e-01  1.4493e-03  1.4918e-03  9.8672e-04  3.1261e-05  3.3540e-03  1.1012e-02  0:00:49   63
<aaslistener> 
   938  2.1746e-01  1.4994e-03  1.5440e-03  1.0193e-03  3.0917e-05  3.4672e-03  1.1518e-02  0:00:51   62
<aaslistener> 
   939  2.2478e-01  1.5413e-03  1.5854e-03  1.0490e-03  3.0599e-05  3.5453e-03  1.1866e-02  0:00:52   61
<aaslistener> 
   940  2.3033e-01  1.5789e-03  1.6217e-03  1.0759e-03  3.0310e-05  3.5918e-03  1.2055e-02  0:00:53   60
<aaslistener> 
   941  2.3624e-01  1.6109e-03  1.6521e-03  1.0998e-03  3.0053e-05  3.6076e-03  1.2112e-02  0:00:42   59
<aaslistener> 
   942  2.4152e-01  1.6358e-03  1.6721e-03  1.1223e-03  2.9830e-05  3.6030e-03  1.2016e-02  0:00:45   58
<aaslistener> 
   943  2.4621e-01  1.6553e-03  1.6870e-03  1.1439e-03  2.9658e-05  3.5882e-03  1.1851e-02  0:00:46   57

  iter  continuity  x-velocity  y-velocity  z-velocity      energy           k     epsilon     time/iter
<aaslistener> 
   944  2.5026e-01  1.6671e-03  1.6949e-03  1.1660e-03  2.9576e-05  3.5715e-03  1.1683e-02  0:00:48   56
<aaslistener> 
   945  2.5357e-01  1.6749e-03  1.6973e-03  1.1861e-03  2.9434e-05  3.5520e-03  1.1432e-02  0:00:48   55
<aaslistener> 
   946  2.5530e-01  1.6734e-03  1.6989e-03  1.2034e-03  2.9230e-05  3.5201e-03  1.1121e-02  0:00:38   54
<aaslistener> 
   947  2.5607e-01  1.6644e-03  1.6984e-03  1.2124e-03  2.8917e-05  3.4588e-03  1.0826e-02  0:00:40   53
<aaslistener> 
   948  2.5437e-01  1.6423e-03  1.6955e-03  1.2135e-03  2.8541e-05  3.3894e-03  1.0629e-02  0:00:42   52
<aaslistener> 
   949  2.5241e-01  1.6079e-03  1.6846e-03  1.2043e-03  2.8044e-05  3.3067e-03  1.0437e-02  0:00:43   51
<aaslistener> 
   950  2.5102e-01  1.5610e-03  1.6603e-03  1.1839e-03  2.7264e-05  3.2157e-03  1.0255e-02  0:00:44   50
<aaslistener> 
   951  2.5007e-01  1.5096e-03  1.6288e-03  1.1544e-03  2.6324e-05  3.1119e-03  9.9689e-03  0:00:44   49
<aaslistener> 
   952  2.4576e-01  1.4572e-03  1.5875e-03  1.1160e-03  2.5417e-05  3.0187e-03  9.7979e-03  0:00:35   48
<aaslistener> 
   953  2.3910e-01  1.4131e-03  1.5429e-03  1.0757e-03  2.4610e-05  2.9594e-03  9.7090e-03  0:00:37   47
<aaslistener> 
   954  2.3111e-01  1.3812e-03  1.5026e-03  1.0336e-03  2.3878e-05  2.9368e-03  9.8082e-03  0:00:38   46

  iter  continuity  x-velocity  y-velocity  z-velocity      energy           k     epsilon     time/iter
<aaslistener> 
   955  2.2249e-01  1.3642e-03  1.4741e-03  9.9476e-04  2.3262e-05  2.9215e-03  9.9024e-03  0:00:39   45
<aaslistener> 
   956  2.1517e-01  1.3594e-03  1.4514e-03  9.6191e-04  2.2697e-05  2.9189e-03  9.8983e-03  0:00:39   44
<aaslistener> 
   957  2.0850e-01  1.3582e-03  1.4298e-03  9.3234e-04  2.2112e-05  2.9226e-03  9.8642e-03  0:00:30   43
<aaslistener> 
   958  2.0216e-01  1.3579e-03  1.4110e-03  9.0594e-04  2.1482e-05  2.9341e-03  9.8321e-03  0:00:32   42
<aaslistener> 
   959  1.9875e-01  1.3560e-03  1.3844e-03  8.8193e-04  2.0777e-05  2.9559e-03  9.8839e-03  0:00:33   41
<aaslistener> 
   960  1.9644e-01  1.3572e-03  1.3516e-03  8.6187e-04  2.0077e-05  2.9931e-03  9.9236e-03  0:00:34   40
<aaslistener> 
   961  1.9488e-01  1.3632e-03  1.3130e-03  8.4606e-04  1.9389e-05  3.0053e-03  9.9287e-03  0:00:34   39
<aaslistener> 
   962  1.9314e-01  1.3703e-03  1.2704e-03  8.2890e-04  1.8856e-05  2.9817e-03  9.7855e-03  0:00:27   38
<aaslistener> 
   963  1.9209e-01  1.3689e-03  1.2315e-03  8.1677e-04  1.8292e-05  2.9114e-03  9.5523e-03  0:00:28   37
<aaslistener> 
   964  1.8974e-01  1.3589e-03  1.1995e-03  8.0724e-04  1.7753e-05  2.8038e-03  9.1959e-03  0:00:29   36
<aaslistener> 
   965  1.8602e-01  1.3425e-03  1.1735e-03  7.9636e-04  1.7083e-05  2.6841e-03  8.7776e-03  0:00:30   35

  iter  continuity  x-velocity  y-velocity  z-velocity      energy           k     epsilon     time/iter
<aaslistener> 
   966  1.8453e-01  1.3151e-03  1.1585e-03  7.8825e-04  1.6293e-05  2.5644e-03  8.4390e-03  0:00:30   34
<aaslistener> 
   967  1.8167e-01  1.2791e-03  1.1552e-03  7.7773e-04  1.5472e-05  2.4822e-03  8.1521e-03  0:00:30   33
<aaslistener> 
   968  1.7758e-01  1.2420e-03  1.1560e-03  7.6465e-04  1.4735e-05  2.4237e-03  7.8889e-03  0:00:23   32
<aaslistener> 
   969  1.7540e-01  1.2106e-03  1.1543e-03  7.5131e-04  1.4165e-05  2.3992e-03  7.7140e-03  0:00:24   31
<aaslistener> 
   970  1.7113e-01  1.1862e-03  1.1486e-03  7.3871e-04  1.3756e-05  2.3996e-03  7.6568e-03  0:00:25   30
<aaslistener> 
   971  1.6654e-01  1.1673e-03  1.1391e-03  7.2892e-04  1.3524e-05  2.4061e-03  7.6779e-03  0:00:25   29
<aaslistener> 
   972  1.6224e-01  1.1525e-03  1.1289e-03  7.2158e-04  1.3472e-05  2.3983e-03  7.7319e-03  0:00:25   28
<aaslistener> 
   973  1.6024e-01  1.1393e-03  1.1191e-03  7.1721e-04  1.3569e-05  2.3802e-03  7.7037e-03  0:00:19   27
<aaslistener> 
   974  1.5872e-01  1.1241e-03  1.1131e-03  7.1680e-04  1.3718e-05  2.3420e-03  7.6471e-03  0:00:20   26
<aaslistener> 
   975  1.5675e-01  1.1112e-03  1.1084e-03  7.2121e-04  1.3897e-05  2.2815e-03  7.5505e-03  0:00:20   25
<aaslistener> 
   976  1.5658e-01  1.0967e-03  1.1062e-03  7.2810e-04  1.4086e-05  2.2108e-03  7.3739e-03  0:00:20   24

  iter  continuity  x-velocity  y-velocity  z-velocity      energy           k     epsilon     time/iter
<aaslistener> 
   977  1.5855e-01  1.0817e-03  1.1075e-03  7.3547e-04  1.4247e-05  2.1376e-03  7.1421e-03  0:00:20   23
<aaslistener> 
   978  1.6269e-01  1.0646e-03  1.1083e-03  7.4203e-04  1.4393e-05  2.0841e-03  6.9177e-03  0:00:20   22
<aaslistener> 
   979  1.6715e-01  1.0508e-03  1.1092e-03  7.4427e-04  1.4480e-05  2.0567e-03  6.8248e-03  0:00:15   21
<aaslistener> 
   980  1.7076e-01  1.0410e-03  1.1059e-03  7.4432e-04  1.4542e-05  2.0352e-03  6.7245e-03  0:00:16   20
<aaslistener> 
   981  1.7289e-01  1.0304e-03  1.0973e-03  7.4266e-04  1.4547e-05  2.0328e-03  6.7110e-03  0:00:16   19
<aaslistener> 
   982  1.7356e-01  1.0239e-03  1.0855e-03  7.3590e-04  1.4456e-05  2.0571e-03  6.8491e-03  0:00:15   18
<aaslistener> 
   983  1.7334e-01  1.0200e-03  1.0740e-03  7.2485e-04  1.4395e-05  2.0883e-03  7.0130e-03  0:00:15   17
<aaslistener> 
   984  1.7219e-01  1.0231e-03  1.0703e-03  7.1140e-04  1.4169e-05  2.1473e-03  7.2409e-03  0:00:15   16
<aaslistener> 
   985  1.7044e-01  1.0420e-03  1.0807e-03  6.9623e-04  1.4123e-05  2.2422e-03  7.5571e-03  0:00:11   15
<aaslistener> 
   986  1.6813e-01  1.0760e-03  1.1038e-03  6.8544e-04  1.4012e-05  2.3642e-03  7.9944e-03  0:00:11   14
<aaslistener> 
   987  1.6593e-01  1.1284e-03  1.1458e-03  6.8495e-04  1.4074e-05  2.5127e-03  8.5377e-03  0:00:11   13

  iter  continuity  x-velocity  y-velocity  z-velocity      energy           k     epsilon     time/iter
<aaslistener> 
   988  1.6538e-01  1.1981e-03  1.2080e-03  6.9361e-04  1.4162e-05  2.6998e-03  9.1108e-03  0:00:10   12
<aaslistener> 
   989  1.6707e-01  1.2826e-03  1.2836e-03  7.1477e-04  1.4299e-05  2.9036e-03  9.7023e-03  0:00:10   11
<aaslistener> 
   990  1.7155e-01  1.3752e-03  1.3696e-03  7.4850e-04  1.4569e-05  3.1631e-03  1.0384e-02  0:00:07   10
<aaslistener> 
   991  1.7743e-01  1.4683e-03  1.4551e-03  7.8747e-04  1.4799e-05  3.4122e-03  1.1142e-02  0:00:07    9
<aaslistener> 
   992  1.8434e-01  1.5528e-03  1.5308e-03  8.2934e-04  1.4920e-05  3.6499e-03  1.1902e-02  0:00:07    8
<aaslistener> 
   993  1.9168e-01  1.6271e-03  1.5898e-03  8.6790e-04  1.4980e-05  3.7792e-03  1.2210e-02  0:00:06    7
<aaslistener> 
   994  1.9776e-01  1.6745e-03  1.6220e-03  9.0225e-04  1.4944e-05  3.8487e-03  1.2358e-02  0:00:05    6
<aaslistener> 
   995  2.0219e-01  1.7044e-03  1.6321e-03  9.2458e-04  1.4937e-05  3.7690e-03  1.1848e-02  0:00:05    5
<aaslistener> 
   996  2.0433e-01  1.7045e-03  1.6286e-03  9.3974e-04  1.4956e-05  3.6518e-03  1.1218e-02  0:00:04    4
<aaslistener> 
   997  2.0705e-01  1.7072e-03  1.6215e-03  9.4739e-04  1.4951e-05  3.5586e-03  1.0794e-02  0:00:02    3
<aaslistener> 
   998  2.0740e-01  1.6789e-03  1.6068e-03  9.6165e-04  1.5023e-05  3.4847e-03  1.0481e-02  0:00:02    2

  iter  continuity  x-velocity  y-velocity  z-velocity      energy           k     epsilon     time/iter
<aaslistener> 
   999  2.0675e-01  1.6589e-03  1.5947e-03  9.7869e-04  1.5217e-05  3.4460e-03  1.0389e-02  0:00:01    1
<aaslistener> 
  1000  2.0832e-01  1.6315e-03  1.5794e-03  1.0084e-03  1.5495e-05  3.4224e-03  1.0497e-02  0:00:00    0
