
              Welcome to ANSYS Fluent 2020 R2

              Copyright 1987-2020 ANSYS, Inc. All Rights Reserved.
              Unauthorized use, distribution or duplication is prohibited.
              This product is subject to U.S. laws governing export and re-export.
              For full Legal Notice, see documentation.

Build Time: May 29 2020 07:22:43 EDT  Build Id: 10176  
 

*********************************************
Info: Your license enables 4-way parallel execution.
For faster simulations, please start the application with the appropriate parallel options.
*********************************************

Host spawning Node 0 on machine "wenzheshang" (win64).

-------------------------------------------------------------------------------
ID    Hostname     Core  O.S.         PID    Vendor                     
-------------------------------------------------------------------------------
n0    wenzheshang  1/12  Windows-x64  10312  Intel(R) Core(TM) i7-8750H 
host  wenzheshang        Windows-x64  14048  Intel(R) Core(TM) i7-8750H 

MPI Option Selected: intel
-------------------------------------------------------------------------------

Cleanup script file is f:\\Thinking\\program\\BELab1.0\\Workdata\\Fluent_Python\\2023-02-17_22-29\\cleanup-fluent-wenzheshang-14048.bat

Opening wrapper library "F:\\ANASYS\\ANSYS Inc\\v202\\fluent/../commonfiles/AAS/bin/winx64/COWrapper.dll"...

Done.
Loading "F:/ANASYS/ANSYS Inc/v202/fluent/../commonfiles/AAS/bin/winx64/cowrapper.scm"
Done.
(define (aaslistener-func iter time-step) (display "<aaslistener> 
") '() )aaslistener-func
(define (aaslistener-func-freq) 1)aaslistener-func-freq
(register-solution-monitor 'aaslistener-func aaslistener-func #f aaslistener-func-freq)monitor-lambdas
(rpsetvar 'co-simulation/ior_ICoFluentUnit "IOR:010000002000000049444c3a4141535f434f5242412f49436f466c75656e74556e69743a312e3000020000000000000070000000010102000f0000003137322e32332e3139342e313835000060d700001b00000014010f005253544b8fef63b76108000100000001000000020000000002000000000000000800000001000000004f41540100000018000000010000000100010001000000010001050901010000000000000000006c000000010102000b0000003137322e31372e302e31003160d700001b00000014010f005253544b8fef63b76108000100000001000000020000000202000000000000000800000001000000004f41540100000018000000010000000100010001000000010001050901010000000000")co-simulation/ior_icofluentunit
(rp-var-define 'co-simulation/ior_ExceptionHolder "IOR:010000003000000049444c3a4141535f434f5242412f466c75656e742f49466c75656e74457863657074696f6e486f6c6465723a312e3000020000000000000070000000010102000f0000003137322e32332e3139342e31383500005ed700001b00000014010f005253544b8fef63dc5d080000000000010000000100000000020000000000000008000000010105bd004f41540100000018000000010105bd0100010001000000010001050901010000000000000000006c000000010102000b0000003137322e31372e302e3100315ed700001b00000014010f005253544b8fef63dc5d080000000000010000000100000001020000000000000008000000010105bd004f41540100000018000000010105bd0100010001000000010001050901010000000000" 'string #f)co-simulation/ior_exceptionholder
(rpsetvar 'co-simulation/ior_ExceptionHolder "IOR:010000003000000049444c3a4141535f434f5242412f466c75656e742f49466c75656e74457863657074696f6e486f6c6465723a312e3000020000000000000070000000010102000f0000003137322e32332e3139342e31383500005ed700001b00000014010f005253544b8fef63dc5d080000000000010000000100000000020000000000000008000000010105bd004f41540100000018000000010105bd0100010001000000010001050901010000000000000000006c000000010102000b0000003137322e31372e302e3100315ed700001b00000014010f005253544b8fef63dc5d080000000000010000000100000001020000000000000008000000010105bd004f41540100000018000000010105bd0100010001000000010001050901010000000000")co-simulation/ior_exceptionholder

> 
Reading "F:/Thinking/mesh/vadilation/roomesh.msh"...

Buffering for file scan...

   59319 nodes, binary.
    9602 nodes, binary.
  187200 quadrilateral interior faces, zone  1, binary.
    1600 quadrilateral wall faces, zone  5, binary.
    1600 quadrilateral wall faces, zone  6, binary.
     160 quadrilateral velocity-inlet faces, zone  7, binary.
     160 quadrilateral pressure-outlet faces, zone  8, binary.
    1600 quadrilateral wall faces, zone  9, binary.
    1600 quadrilateral wall faces, zone 10, binary.
    1440 quadrilateral wall faces, zone 11, binary.
    1440 quadrilateral wall faces, zone 12, binary.
   64000 hexahedral cells, zone  4, binary.

Building...
     mesh
     materials,
     interface,
     domains,
     zones,
	wall-front
	wall-back
	wall-left
	wall-right
	outlet
	inlet
	wall-floor
	wall-ceiling
	cell-fuild
	interior-cell-fuild
     parallel,
Done.

Preparing mesh for display...
Done.
/define/model viscous ke-rng yes/define/model energy yes no no no no/define/operating-conditions gravity yes 0 9.8/define/boundary/velocity-inlet (inlet)
inlet no no yes yes no 0.8333333457509677 no 0 no 303.15 no no yes 5 10/define/boundary/wall (wall-ceiling wall-floor wall-right wall-left wall-back wall-front)
wall-front 0 no 0 no yes temperature no 283.15/define/boundary/wall (wall-ceiling wall-floor wall-right wall-left wall-back wall-front)
wall-back 0 no 0 no yes temperature no 283.15/define/boundary/wall (wall-ceiling wall-floor wall-right wall-left wall-back wall-front)
wall-left 0 no 0 no yes temperature no 283.15/define/boundary/wall (wall-ceiling wall-floor wall-right wall-left wall-back wall-front)
wall-right 0 no 0 no yes temperature no 283.15/define/boundary/wall (wall-ceiling wall-floor wall-right wall-left wall-back wall-front)
wall-ceiling 0 no 0 no yes temperature no 283.15/define/boundary/wall (wall-ceiling wall-floor wall-right wall-left wall-back wall-front)
wall-floor 0 no 0 no yes temperature no 303.15/define/boundary/outflow invalid command [outflow]
outlet(cx-gui-do cx-set-list-tree-selections "NavigationPane*List_Tree1" (list "Setup|Boundary Conditions|Outlet|outlet (pressure-outlet, id=8)"))
(cx-gui-do cx-set-list-tree-selections "NavigationPane*List_Tree1" (list "Setup|Boundary Conditions|Outlet|outlet (pressure-outlet, id=8)"))
(cx-gui-do cx-list-tree-right-click "NavigationPane*List_Tree1" )
(cx-gui-do cx-activate-item "MenuBar*TypeSubMenu*outflow")
/solve/initialize/compute-defaults/all-zonessolve iterate 100
Initialize using the hybrid initialization method.

Checking case topology... 
-This case has both inlets & outlets 
-Pressure information is not available at the boundaries.
 Case will be initialized with constant pressure

	iter		scalar-0

	1		1.000000e+00
	2		1.017806e-05
	3		9.829491e-07
	4		9.823473e-08
	5		9.216920e-09
	6		8.672313e-10
	7		8.151888e-11
	8		7.637623e-12
	9		8.211756e-13
	10		9.202109e-14

Hybrid initialization is done.
<aaslistener> 

  iter  continuity  x-velocity  y-velocity  z-velocity      energy           k     epsilon     time/iter
<aaslistener> 
     1  1.0000e+00  8.5995e-02  6.5535e-02  4.5683e-05  5.2082e-04  1.3400e-01  1.5051e-01  0:01:39   99
<aaslistener> 
     2  6.2589e-01  5.6131e-02  3.6475e-02  1.0947e-04  6.0270e-04  7.7407e-02  1.0479e-01  0:01:58   98
<aaslistener> 
     3  5.1916e-01  4.0420e-02  2.3503e-02  1.4087e-04  5.0747e-04  6.0963e-02  1.2843e-01  0:01:53   97
<aaslistener> 
     4  6.3899e-01  2.9134e-02  1.5002e-02  1.9156e-04  4.1526e-04  5.3634e-02  1.6383e-01  0:01:48   96
<aaslistener> 
     5  7.4335e-01  2.0858e-02  1.0754e-02  2.4292e-04  3.2713e-04  4.9574e-02  1.8198e-01  0:01:45   95
<aaslistener> 
     6  7.2645e-01  1.5079e-02  8.6029e-03  2.9787e-04  2.5796e-04  4.2667e-02  1.6795e-01  0:01:42   94
<aaslistener> 
     7  6.6918e-01  1.0982e-02  7.2042e-03  3.4621e-04  2.1319e-04  3.5983e-02  1.4003e-01  0:01:20   93
<aaslistener> 
     8  6.1740e-01  8.2849e-03  6.1299e-03  3.8849e-04  1.8086e-04  2.8681e-02  1.0623e-01  0:01:22   92
<aaslistener> 
     9  5.4962e-01  6.5340e-03  5.1358e-03  4.2594e-04  1.5442e-04  2.1659e-02  7.7318e-02  0:01:23   91
<aaslistener> 
    10  4.9792e-01  5.4706e-03  4.1845e-03  4.5782e-04  1.3322e-04  1.5894e-02  5.5872e-02  0:01:24   90
<aaslistener> 
    11  4.4983e-01  4.6978e-03  3.3499e-03  4.8733e-04  1.1592e-04  1.1691e-02  3.9937e-02  0:01:24   89

  iter  continuity  x-velocity  y-velocity  z-velocity      energy           k     epsilon     time/iter
<aaslistener> 
    12  4.1410e-01  4.0625e-03  2.7102e-03  5.1640e-04  1.0071e-04  8.9098e-03  2.7975e-02  0:01:24   88
<aaslistener> 
    13  3.8013e-01  3.4985e-03  2.3686e-03  5.4325e-04  8.7696e-05  7.0005e-03  1.9084e-02  0:01:24   87
<aaslistener> 
    14  3.4465e-01  2.9956e-03  2.2284e-03  5.7150e-04  7.6758e-05  6.0502e-03  1.5237e-02  0:01:24   86
<aaslistener> 
    15  3.2429e-01  2.5365e-03  2.1315e-03  6.0080e-04  6.7498e-05  5.6760e-03  1.6749e-02  0:01:23   85
<aaslistener> 
    16  3.0555e-01  2.1621e-03  2.0578e-03  6.3126e-04  5.9523e-05  5.3687e-03  1.8454e-02  0:01:22   84
<aaslistener> 
    17  2.8704e-01  1.8567e-03  1.9714e-03  6.5797e-04  5.3098e-05  5.0624e-03  1.9540e-02  0:01:22   83
<aaslistener> 
    18  2.7060e-01  1.6329e-03  1.8625e-03  6.8057e-04  4.7681e-05  4.7408e-03  1.9823e-02  0:01:05   82
<aaslistener> 
    19  2.5458e-01  1.4770e-03  1.7370e-03  6.9704e-04  4.2954e-05  4.4111e-03  1.9257e-02  0:01:07   81
<aaslistener> 
    20  2.3961e-01  1.3721e-03  1.6047e-03  7.0964e-04  3.8952e-05  4.1201e-03  1.8046e-02  0:01:09   80
<aaslistener> 
    21  2.2601e-01  1.3038e-03  1.4728e-03  7.1534e-04  3.5360e-05  3.9043e-03  1.6478e-02  0:01:10   79
<aaslistener> 
    22  2.1381e-01  1.2542e-03  1.3525e-03  7.1376e-04  3.2066e-05  3.8067e-03  1.4906e-02  0:01:11   78

  iter  continuity  x-velocity  y-velocity  z-velocity      energy           k     epsilon     time/iter
<aaslistener> 
    23  2.0291e-01  1.2178e-03  1.2496e-03  7.0763e-04  2.9006e-05  3.7731e-03  1.3934e-02  0:01:12   77
<aaslistener> 
    24  1.9269e-01  1.1839e-03  1.1619e-03  6.9611e-04  2.6253e-05  3.7223e-03  1.3244e-02  0:00:57   76
<aaslistener> 
    25  1.8325e-01  1.1459e-03  1.0857e-03  6.7899e-04  2.3992e-05  3.6265e-03  1.2547e-02  0:01:00   75
<aaslistener> 
    26  1.7503e-01  1.1074e-03  1.0181e-03  6.5651e-04  2.2184e-05  3.4886e-03  1.1736e-02  0:01:02   74
<aaslistener> 
    27  1.6716e-01  1.0688e-03  9.5945e-04  6.2886e-04  2.0651e-05  3.3144e-03  1.0847e-02  0:01:03   73
<aaslistener> 
    28  1.5990e-01  1.0291e-03  9.0752e-04  5.9786e-04  1.9321e-05  3.1104e-03  9.9068e-03  0:01:04   72
<aaslistener> 
    29  1.5193e-01  9.9059e-04  8.6259e-04  5.6621e-04  1.8126e-05  2.8948e-03  8.9420e-03  0:01:05   71
<aaslistener> 
    30  1.4366e-01  9.5386e-04  8.2896e-04  5.3811e-04  1.7069e-05  2.6773e-03  8.0019e-03  0:00:51   70
<aaslistener> 
    31  1.3622e-01  9.2390e-04  8.0965e-04  5.1547e-04  1.6161e-05  2.4718e-03  7.1446e-03  0:00:54   69
<aaslistener> 
    32  1.2979e-01  9.0374e-04  8.0500e-04  4.9827e-04  1.5504e-05  2.3013e-03  6.4535e-03  0:00:56   68
<aaslistener> 
    33  1.2649e-01  8.9310e-04  8.1327e-04  4.8744e-04  1.5160e-05  2.1853e-03  6.0258e-03  0:00:58   67

  iter  continuity  x-velocity  y-velocity  z-velocity      energy           k     epsilon     time/iter
<aaslistener> 
    34  1.2593e-01  8.9020e-04  8.3389e-04  4.8350e-04  1.4996e-05  2.1266e-03  5.9055e-03  0:00:59   66
<aaslistener> 
    35  1.2716e-01  8.9524e-04  8.6475e-04  4.8561e-04  1.4988e-05  2.1126e-03  6.0483e-03  0:00:46   65
<aaslistener> 
    36  1.3060e-01  9.0817e-04  9.0267e-04  4.9333e-04  1.5122e-05  2.1364e-03  6.3691e-03  0:00:49   64
<aaslistener> 
    37  1.3563e-01  9.2635e-04  9.4697e-04  5.1014e-04  1.5370e-05  2.1842e-03  6.7706e-03  0:00:51   63
<aaslistener> 
    38  1.4137e-01  9.4844e-04  9.9294e-04  5.3459e-04  1.5681e-05  2.2511e-03  7.2004e-03  0:00:53   62
<aaslistener> 
    39  1.4853e-01  9.7512e-04  1.0406e-03  5.6553e-04  1.6000e-05  2.3208e-03  7.6103e-03  0:00:54   61
<aaslistener> 
    40  1.5700e-01  1.0062e-03  1.0903e-03  5.9920e-04  1.6345e-05  2.3992e-03  7.9983e-03  0:00:54   60
<aaslistener> 
    41  1.6600e-01  1.0432e-03  1.1403e-03  6.3361e-04  1.6676e-05  2.4928e-03  8.4419e-03  0:00:55   59
<aaslistener> 
    42  1.7572e-01  1.0860e-03  1.1843e-03  6.6826e-04  1.7053e-05  2.5963e-03  8.8885e-03  0:00:55   58
<aaslistener> 
    43  1.8530e-01  1.1315e-03  1.2265e-03  7.0249e-04  1.7445e-05  2.6867e-03  9.2629e-03  0:00:54   57
<aaslistener> 
    44  1.9513e-01  1.1850e-03  1.2681e-03  7.3968e-04  1.7864e-05  2.7708e-03  9.5343e-03  0:00:54   56

  iter  continuity  x-velocity  y-velocity  z-velocity      energy           k     epsilon     time/iter
<aaslistener> 
    45  2.0383e-01  1.2423e-03  1.3141e-03  7.7915e-04  1.8341e-05  2.8712e-03  9.8482e-03  0:00:53   55
<aaslistener> 
    46  2.1157e-01  1.3073e-03  1.3594e-03  8.1854e-04  1.8869e-05  2.9809e-03  1.0218e-02  0:00:53   54
<aaslistener> 
    47  2.1779e-01  1.3809e-03  1.4093e-03  8.5716e-04  1.9485e-05  3.0823e-03  1.0508e-02  0:00:52   53
<aaslistener> 
    48  2.2511e-01  1.4613e-03  1.4659e-03  9.0051e-04  2.0093e-05  3.1881e-03  1.0673e-02  0:00:51   52
<aaslistener> 
    49  2.3168e-01  1.5462e-03  1.5284e-03  9.4892e-04  2.0802e-05  3.3100e-03  1.0787e-02  0:00:40   51
<aaslistener> 
    50  2.3888e-01  1.6338e-03  1.5978e-03  9.9698e-04  2.1568e-05  3.4529e-03  1.0974e-02  0:00:41   50
<aaslistener> 
    51  2.4570e-01  1.7262e-03  1.6779e-03  1.0400e-03  2.2350e-05  3.6034e-03  1.1178e-02  0:00:42   49
<aaslistener> 
    52  2.5122e-01  1.8157e-03  1.7642e-03  1.0777e-03  2.3189e-05  3.7564e-03  1.1425e-02  0:00:43   48
<aaslistener> 
    53  2.5624e-01  1.9005e-03  1.8534e-03  1.1080e-03  2.3928e-05  3.9127e-03  1.1716e-02  0:00:43   47
<aaslistener> 
    54  2.5959e-01  1.9793e-03  1.9406e-03  1.1298e-03  2.4603e-05  4.0654e-03  1.2038e-02  0:00:34   46
<aaslistener> 
    55  2.6187e-01  2.0528e-03  2.0257e-03  1.1380e-03  2.5219e-05  4.2042e-03  1.2391e-02  0:00:35   45

  iter  continuity  x-velocity  y-velocity  z-velocity      energy           k     epsilon     time/iter
<aaslistener> 
    56  2.6236e-01  2.1223e-03  2.1028e-03  1.1378e-03  2.5814e-05  4.3444e-03  1.2766e-02  0:00:36   44
<aaslistener> 
    57  2.6207e-01  2.1825e-03  2.1714e-03  1.1320e-03  2.6360e-05  4.4709e-03  1.2999e-02  0:00:37   43
<aaslistener> 
    58  2.6088e-01  2.2320e-03  2.2235e-03  1.1271e-03  2.6822e-05  4.5610e-03  1.3120e-02  0:00:37   42
<aaslistener> 
    59  2.5861e-01  2.2762e-03  2.2401e-03  1.1263e-03  2.7170e-05  4.6154e-03  1.3127e-02  0:00:37   41
<aaslistener> 
    60  2.5775e-01  2.3056e-03  2.2231e-03  1.1410e-03  2.7543e-05  4.6657e-03  1.3245e-02  0:00:37   40
<aaslistener> 
    61  2.5908e-01  2.3066e-03  2.1967e-03  1.1599e-03  2.7715e-05  4.7138e-03  1.3542e-02  0:00:37   39
<aaslistener> 
    62  2.5513e-01  2.2879e-03  2.1629e-03  1.1827e-03  2.7593e-05  4.7537e-03  1.3855e-02  0:00:36   38
<aaslistener> 
    63  2.5369e-01  2.2430e-03  2.1255e-03  1.2079e-03  2.7408e-05  4.7225e-03  1.3950e-02  0:00:28   37
<aaslistener> 
    64  2.5355e-01  2.1798e-03  2.0772e-03  1.2256e-03  2.7112e-05  4.5806e-03  1.3594e-02  0:00:29   36
<aaslistener> 
    65  2.5026e-01  2.1050e-03  2.0261e-03  1.2267e-03  2.6700e-05  4.3440e-03  1.2904e-02  0:00:30   35
<aaslistener> 
    66  2.4470e-01  2.0266e-03  1.9652e-03  1.2158e-03  2.6263e-05  4.1312e-03  1.2241e-02  0:00:30   34

  iter  continuity  x-velocity  y-velocity  z-velocity      energy           k     epsilon     time/iter
<aaslistener> 
    67  2.3937e-01  1.9596e-03  1.9087e-03  1.1948e-03  2.5749e-05  4.0110e-03  1.2098e-02  0:00:30   33
<aaslistener> 
    68  2.3579e-01  1.9048e-03  1.8621e-03  1.1710e-03  2.5172e-05  3.9243e-03  1.2320e-02  0:00:30   32
<aaslistener> 
    69  2.3190e-01  1.8619e-03  1.8283e-03  1.1497e-03  2.4485e-05  3.8389e-03  1.2416e-02  0:00:29   31
<aaslistener> 
    70  2.3083e-01  1.8286e-03  1.8078e-03  1.1308e-03  2.3771e-05  3.7686e-03  1.2339e-02  0:00:29   30
<aaslistener> 
    71  2.3311e-01  1.8002e-03  1.7915e-03  1.1198e-03  2.2935e-05  3.7462e-03  1.2322e-02  0:00:22   29
<aaslistener> 
    72  2.3625e-01  1.7728e-03  1.7740e-03  1.1137e-03  2.2113e-05  3.7271e-03  1.2297e-02  0:00:23   28
<aaslistener> 
    73  2.4071e-01  1.7432e-03  1.7545e-03  1.1063e-03  2.1211e-05  3.6893e-03  1.2303e-02  0:00:23   27
<aaslistener> 
    74  2.4516e-01  1.7020e-03  1.7304e-03  1.0921e-03  2.0290e-05  3.6251e-03  1.2249e-02  0:00:23   26
<aaslistener> 
    75  2.4873e-01  1.6541e-03  1.7033e-03  1.0679e-03  1.9433e-05  3.5567e-03  1.2188e-02  0:00:23   25
<aaslistener> 
    76  2.5051e-01  1.6021e-03  1.6744e-03  1.0389e-03  1.8637e-05  3.4773e-03  1.1998e-02  0:00:22   24
<aaslistener> 
    77  2.5011e-01  1.5520e-03  1.6495e-03  1.0061e-03  1.7894e-05  3.4364e-03  1.1687e-02  0:00:22   23

  iter  continuity  x-velocity  y-velocity  z-velocity      energy           k     epsilon     time/iter
<aaslistener> 
    78  2.4641e-01  1.5072e-03  1.6401e-03  9.7529e-04  1.7239e-05  3.4352e-03  1.1353e-02  0:00:16   22
<aaslistener> 
    79  2.4025e-01  1.4646e-03  1.6377e-03  9.5015e-04  1.6650e-05  3.4325e-03  1.1070e-02  0:00:21   21
<aaslistener> 
    80  2.3510e-01  1.4280e-03  1.6334e-03  9.3022e-04  1.6114e-05  3.4048e-03  1.0728e-02  0:00:20   20
<aaslistener> 
    81  2.2864e-01  1.3978e-03  1.6266e-03  9.1849e-04  1.5651e-05  3.3765e-03  1.0450e-02  0:00:15   19
<aaslistener> 
    82  2.2347e-01  1.3843e-03  1.6238e-03  9.1150e-04  1.5224e-05  3.3643e-03  1.0397e-02  0:00:15   18
<aaslistener> 
    83  2.1820e-01  1.3853e-03  1.6298e-03  9.1324e-04  1.4830e-05  3.3411e-03  1.0446e-02  0:00:15   17
<aaslistener> 
    84  2.1350e-01  1.3972e-03  1.6375e-03  9.2630e-04  1.4468e-05  3.3341e-03  1.0628e-02  0:00:14   16
<aaslistener> 
    85  2.1061e-01  1.4119e-03  1.6432e-03  9.4189e-04  1.4180e-05  3.3504e-03  1.0979e-02  0:00:14   15
<aaslistener> 
    86  2.1036e-01  1.4210e-03  1.6414e-03  9.4773e-04  1.3936e-05  3.3530e-03  1.1417e-02  0:00:13   14
<aaslistener> 
    87  2.1092e-01  1.4162e-03  1.6277e-03  9.3949e-04  1.3714e-05  3.3389e-03  1.1782e-02  0:00:12   13
<aaslistener> 
    88  2.1176e-01  1.3958e-03  1.5936e-03  9.1413e-04  1.3482e-05  3.3147e-03  1.2014e-02  0:00:11   12

  iter  continuity  x-velocity  y-velocity  z-velocity      energy           k     epsilon     time/iter
<aaslistener> 
    89  2.1233e-01  1.3584e-03  1.5468e-03  8.8057e-04  1.3299e-05  3.2829e-03  1.2093e-02  0:00:08   11
<aaslistener> 
    90  2.0951e-01  1.3057e-03  1.4878e-03  8.4200e-04  1.3118e-05  3.2287e-03  1.1994e-02  0:00:08   10
<aaslistener> 
    91  2.0492e-01  1.2442e-03  1.4350e-03  8.0516e-04  1.2900e-05  3.1378e-03  1.1708e-02  0:00:08    9
<aaslistener> 
    92  1.9984e-01  1.1791e-03  1.3809e-03  7.7695e-04  1.2608e-05  3.0315e-03  1.1253e-02  0:00:07    8
<aaslistener> 
    93  1.9404e-01  1.1154e-03  1.3356e-03  7.5732e-04  1.2342e-05  2.9047e-03  1.0609e-02  0:00:06    7
<aaslistener> 
    94  1.8812e-01  1.0583e-03  1.2933e-03  7.4101e-04  1.2065e-05  2.7706e-03  9.8781e-03  0:00:04    6
<aaslistener> 
    95  1.8235e-01  1.0167e-03  1.2547e-03  7.2733e-04  1.1825e-05  2.6356e-03  9.0591e-03  0:00:04    5
<aaslistener> 
    96  1.7754e-01  9.9039e-04  1.2189e-03  7.1261e-04  1.1492e-05  2.5022e-03  8.2179e-03  0:00:03    4
<aaslistener> 
    97  1.7314e-01  9.7458e-04  1.1826e-03  6.9539e-04  1.1130e-05  2.3706e-03  7.4323e-03  0:00:03    3
<aaslistener> 
    98  1.6973e-01  9.6895e-04  1.1445e-03  6.7927e-04  1.0845e-05  2.2408e-03  6.7238e-03  0:00:02    2
<aaslistener> 
    99  1.6602e-01  9.7271e-04  1.1070e-03  6.6346e-04  1.0544e-05  2.1212e-03  6.1436e-03  0:00:01    1

  iter  continuity  x-velocity  y-velocity  z-velocity      energy           k     epsilon     time/iter
<aaslistener> 
   100  1.6365e-01  9.8232e-04  1.0710e-03  6.4786e-04  1.0292e-05  2.0335e-03  5.7821e-03  0:00:00    0
/define/boundary/velocity-inlet (inlet)
inlet no no yes yes no 0.8333333457509677 no 0 no 303.15 no no yes 5 10/solve/initialize/compute-defaults/all-zonessolve iterate 100<aaslistener> 

  iter  continuity  x-velocity  y-velocity  z-velocity      energy           k     epsilon     time/iter
<aaslistener> 
   100  1.6365e-01  9.8232e-04  1.0710e-03  6.4786e-04  1.0292e-05  2.0335e-03  5.7821e-03  0:01:13  100
<aaslistener> 
   101  1.6282e-01  9.9600e-04  1.0412e-03  6.3365e-04  1.0072e-05  1.9805e-03  5.5634e-03  0:00:58   99
<aaslistener> 
   102  1.6188e-01  1.0097e-03  1.0159e-03  6.2404e-04  9.8881e-06  1.9527e-03  5.4370e-03  0:01:05   98
<aaslistener> 
   103  1.6073e-01  1.0267e-03  9.9462e-04  6.1858e-04  9.7525e-06  1.9461e-03  5.3772e-03  0:01:11   97
<aaslistener> 
   104  1.5933e-01  1.0450e-03  9.7938e-04  6.1418e-04  9.7105e-06  1.9508e-03  5.3381e-03  0:01:15   96
<aaslistener> 
   105  1.5773e-01  1.0621e-03  9.7191e-04  6.1063e-04  9.8125e-06  1.9682e-03  5.3159e-03  0:01:19   95
<aaslistener> 
   106  1.5541e-01  1.0789e-03  9.7240e-04  6.0595e-04  1.0030e-05  2.0027e-03  5.3237e-03  0:01:21   94
<aaslistener> 
   107  1.5366e-01  1.0968e-03  9.8137e-04  6.0200e-04  1.0338e-05  2.0612e-03  5.4414e-03  0:01:04   93
<aaslistener> 
   108  1.5244e-01  1.1202e-03  9.9390e-04  6.0114e-04  1.0693e-05  2.1377e-03  5.7139e-03  0:01:09   92
<aaslistener> 
   109  1.5175e-01  1.1471e-03  1.0075e-03  6.0272e-04  1.1075e-05  2.2291e-03  6.1079e-03  0:01:13   91
<aaslistener> 
   110  1.5190e-01  1.1751e-03  1.0236e-03  6.0805e-04  1.1431e-05  2.3333e-03  6.5792e-03  0:01:16   90

  iter  continuity  x-velocity  y-velocity  z-velocity      energy           k     epsilon     time/iter
<aaslistener> 
   111  1.5251e-01  1.2027e-03  1.0427e-03  6.1740e-04  1.1824e-05  2.4400e-03  7.0230e-03  0:01:18   89
<aaslistener> 
   112  1.5416e-01  1.2294e-03  1.0637e-03  6.3172e-04  1.2230e-05  2.5491e-03  7.4306e-03  0:01:19   88
<aaslistener> 
   113  1.5678e-01  1.2549e-03  1.0849e-03  6.4925e-04  1.2506e-05  2.6553e-03  7.8167e-03  0:01:20   87
<aaslistener> 
   114  1.5891e-01  1.2754e-03  1.1089e-03  6.6538e-04  1.2630e-05  2.7445e-03  8.1878e-03  0:01:03   86
<aaslistener> 
   115  1.6089e-01  1.2911e-03  1.1325e-03  6.7814e-04  1.2643e-05  2.8048e-03  8.4590e-03  0:01:07   85
<aaslistener> 
   116  1.6236e-01  1.2998e-03  1.1533e-03  6.8552e-04  1.2535e-05  2.8303e-03  8.6292e-03  0:01:10   84
<aaslistener> 
   117  1.6270e-01  1.3029e-03  1.1682e-03  6.8576e-04  1.2241e-05  2.8285e-03  8.7207e-03  0:01:12   83
<aaslistener> 
   118  1.6313e-01  1.2982e-03  1.1714e-03  6.8097e-04  1.1893e-05  2.8098e-03  8.7332e-03  0:01:13   82
<aaslistener> 
   119  1.6301e-01  1.2837e-03  1.1654e-03  6.7561e-04  1.1534e-05  2.7835e-03  8.6958e-03  0:01:14   81
<aaslistener> 
   120  1.6304e-01  1.2633e-03  1.1508e-03  6.7620e-04  1.1270e-05  2.7459e-03  8.6090e-03  0:00:58   80
<aaslistener> 
   121  1.6306e-01  1.2432e-03  1.1305e-03  6.8550e-04  1.1197e-05  2.7111e-03  8.4932e-03  0:01:02   79

  iter  continuity  x-velocity  y-velocity  z-velocity      energy           k     epsilon     time/iter
<aaslistener> 
   122  1.6363e-01  1.2302e-03  1.1102e-03  7.0544e-04  1.1324e-05  2.6823e-03  8.3623e-03  0:01:05   78
<aaslistener> 
   123  1.6465e-01  1.2326e-03  1.0984e-03  7.3147e-04  1.1669e-05  2.6668e-03  8.2635e-03  0:01:06   77
<aaslistener> 
   124  1.6782e-01  1.2516e-03  1.1007e-03  7.6231e-04  1.2164e-05  2.6816e-03  8.2025e-03  0:01:08   76
<aaslistener> 
   125  1.7322e-01  1.2878e-03  1.1186e-03  7.9510e-04  1.2815e-05  2.7284e-03  8.1753e-03  0:01:08   75
<aaslistener> 
   126  1.7905e-01  1.3400e-03  1.1536e-03  8.2916e-04  1.3482e-05  2.7975e-03  8.2130e-03  0:00:54   74
<aaslistener> 
   127  1.8557e-01  1.4006e-03  1.1999e-03  8.6134e-04  1.4079e-05  2.8775e-03  8.2858e-03  0:00:57   73
<aaslistener> 
   128  1.9147e-01  1.4621e-03  1.2518e-03  8.9097e-04  1.4579e-05  2.9670e-03  8.3428e-03  0:01:00   72
<aaslistener> 
   129  1.9626e-01  1.5205e-03  1.3054e-03  9.1567e-04  1.4951e-05  3.0558e-03  8.4449e-03  0:01:01   71
<aaslistener> 
   130  2.0138e-01  1.5688e-03  1.3530e-03  9.3379e-04  1.5197e-05  3.1245e-03  8.5776e-03  0:01:02   70
<aaslistener> 
   131  2.0520e-01  1.6045e-03  1.3929e-03  9.4599e-04  1.5307e-05  3.1755e-03  8.7672e-03  0:00:49   69
<aaslistener> 
   132  2.0738e-01  1.6327e-03  1.4223e-03  9.5151e-04  1.5276e-05  3.2205e-03  8.9955e-03  0:00:52   68

  iter  continuity  x-velocity  y-velocity  z-velocity      energy           k     epsilon     time/iter
<aaslistener> 
   133  2.0941e-01  1.6491e-03  1.4403e-03  9.5228e-04  1.5197e-05  3.2504e-03  9.2346e-03  0:00:55   67
<aaslistener> 
   134  2.1088e-01  1.6536e-03  1.4502e-03  9.4866e-04  1.5084e-05  3.2856e-03  9.4990e-03  0:00:56   66
<aaslistener> 
   135  2.0948e-01  1.6443e-03  1.4505e-03  9.4349e-04  1.4901e-05  3.3360e-03  9.7779e-03  0:00:57   65
<aaslistener> 
   136  2.0789e-01  1.6235e-03  1.4408e-03  9.3705e-04  1.4599e-05  3.3484e-03  9.9598e-03  0:00:58   64
<aaslistener> 
   137  2.0596e-01  1.6002e-03  1.4254e-03  9.3010e-04  1.4230e-05  3.3260e-03  1.0023e-02  0:00:58   63
<aaslistener> 
   138  2.0296e-01  1.5728e-03  1.4064e-03  9.2258e-04  1.3759e-05  3.3290e-03  1.0093e-02  0:00:58   62
<aaslistener> 
   139  1.9859e-01  1.5372e-03  1.3806e-03  9.1367e-04  1.3152e-05  3.3090e-03  1.0170e-02  0:00:58   61
<aaslistener> 
   140  1.9527e-01  1.5036e-03  1.3550e-03  9.0220e-04  1.2524e-05  3.2621e-03  1.0048e-02  0:00:58   60
<aaslistener> 
   141  1.9219e-01  1.4705e-03  1.3291e-03  8.8748e-04  1.1912e-05  3.1633e-03  9.6929e-03  0:00:45   59
<aaslistener> 
   142  1.8888e-01  1.4332e-03  1.2983e-03  8.6898e-04  1.1432e-05  3.0603e-03  9.2133e-03  0:00:47   58
<aaslistener> 
   143  1.8445e-01  1.3927e-03  1.2695e-03  8.4529e-04  1.1065e-05  2.9583e-03  8.7450e-03  0:00:49   57

  iter  continuity  x-velocity  y-velocity  z-velocity      energy           k     epsilon     time/iter
<aaslistener> 
   144  1.7856e-01  1.3489e-03  1.2419e-03  8.1826e-04  1.0722e-05  2.8397e-03  8.2967e-03  0:00:49   56
<aaslistener> 
   145  1.7149e-01  1.3021e-03  1.2135e-03  7.9008e-04  1.0444e-05  2.7010e-03  7.8454e-03  0:00:50   55
<aaslistener> 
   146  1.6411e-01  1.2508e-03  1.1855e-03  7.6308e-04  1.0322e-05  2.5785e-03  7.5125e-03  0:00:50   54
<aaslistener> 
   147  1.5667e-01  1.1983e-03  1.1635e-03  7.4221e-04  1.0413e-05  2.4868e-03  7.3835e-03  0:00:39   53
<aaslistener> 
   148  1.4994e-01  1.1589e-03  1.1492e-03  7.3696e-04  1.0639e-05  2.4371e-03  7.5175e-03  0:00:41   52
<aaslistener> 
   149  1.4522e-01  1.1356e-03  1.1478e-03  7.4399e-04  1.0999e-05  2.4443e-03  7.7791e-03  0:00:42   51
<aaslistener> 
   150  1.4402e-01  1.1286e-03  1.1599e-03  7.5706e-04  1.1418e-05  2.5045e-03  8.1286e-03  0:00:43   50
<aaslistener> 
   151  1.4540e-01  1.1388e-03  1.1842e-03  7.7394e-04  1.1812e-05  2.5992e-03  8.4696e-03  0:00:44   49
<aaslistener> 
   152  1.4918e-01  1.1600e-03  1.2176e-03  7.9241e-04  1.2202e-05  2.7149e-03  8.7445e-03  0:00:44   48
<aaslistener> 
   153  1.5554e-01  1.1902e-03  1.2544e-03  8.0842e-04  1.2570e-05  2.8455e-03  8.9565e-03  0:00:44   47
<aaslistener> 
   154  1.6231e-01  1.2280e-03  1.2956e-03  8.2217e-04  1.2890e-05  2.9720e-03  9.0475e-03  0:00:43   46

  iter  continuity  x-velocity  y-velocity  z-velocity      energy           k     epsilon     time/iter
<aaslistener> 
   155  1.7003e-01  1.2621e-03  1.3403e-03  8.3451e-04  1.3070e-05  3.0561e-03  8.9414e-03  0:00:34   45
<aaslistener> 
   156  1.7674e-01  1.2936e-03  1.3791e-03  8.4457e-04  1.3130e-05  3.0974e-03  8.6978e-03  0:00:35   44
<aaslistener> 
   157  1.8347e-01  1.3183e-03  1.4091e-03  8.5139e-04  1.3127e-05  3.0994e-03  8.3845e-03  0:00:36   43
<aaslistener> 
   158  1.8965e-01  1.3377e-03  1.4296e-03  8.5341e-04  1.3075e-05  3.0932e-03  8.0900e-03  0:00:37   42
<aaslistener> 
   159  1.9350e-01  1.3462e-03  1.4386e-03  8.4923e-04  1.2890e-05  3.0963e-03  7.8230e-03  0:00:37   41
<aaslistener> 
   160  1.9457e-01  1.3487e-03  1.4330e-03  8.4068e-04  1.2569e-05  3.0515e-03  7.5581e-03  0:00:37   40
<aaslistener> 
   161  1.9474e-01  1.3435e-03  1.4108e-03  8.2500e-04  1.2303e-05  2.9464e-03  7.2092e-03  0:00:37   39
<aaslistener> 
   162  1.9388e-01  1.3353e-03  1.3808e-03  8.0436e-04  1.2029e-05  2.8714e-03  6.9398e-03  0:00:36   38
<aaslistener> 
   163  1.9113e-01  1.3183e-03  1.3469e-03  7.8105e-04  1.1754e-05  2.7988e-03  6.7330e-03  0:00:28   37
<aaslistener> 
   164  1.8773e-01  1.2968e-03  1.3054e-03  7.5887e-04  1.1466e-05  2.6898e-03  6.4544e-03  0:00:29   36
<aaslistener> 
   165  1.8445e-01  1.2682e-03  1.2611e-03  7.3978e-04  1.1311e-05  2.5563e-03  6.1454e-03  0:00:30   35

  iter  continuity  x-velocity  y-velocity  z-velocity      energy           k     epsilon     time/iter
<aaslistener> 
   166  1.8095e-01  1.2373e-03  1.2170e-03  7.2823e-04  1.1179e-05  2.4278e-03  5.8926e-03  0:00:30   34
<aaslistener> 
   167  1.7614e-01  1.2048e-03  1.1768e-03  7.2267e-04  1.1107e-05  2.3312e-03  5.7721e-03  0:00:30   33
<aaslistener> 
   168  1.7143e-01  1.1740e-03  1.1453e-03  7.2647e-04  1.1111e-05  2.2595e-03  5.7666e-03  0:00:29   32
<aaslistener> 
   169  1.6702e-01  1.1519e-03  1.1263e-03  7.3937e-04  1.1209e-05  2.2164e-03  5.8378e-03  0:00:29   31
<aaslistener> 
   170  1.6356e-01  1.1420e-03  1.1166e-03  7.5462e-04  1.1376e-05  2.2112e-03  5.9619e-03  0:00:28   30
<aaslistener> 
   171  1.6190e-01  1.1409e-03  1.1126e-03  7.6953e-04  1.1589e-05  2.2430e-03  6.1370e-03  0:00:28   29
<aaslistener> 
   172  1.6143e-01  1.1437e-03  1.1139e-03  7.8538e-04  1.1799e-05  2.2995e-03  6.3586e-03  0:00:27   28
<aaslistener> 
   173  1.6107e-01  1.1470e-03  1.1163e-03  7.9926e-04  1.1949e-05  2.3755e-03  6.5935e-03  0:00:26   27
<aaslistener> 
   174  1.6081e-01  1.1497e-03  1.1216e-03  8.0758e-04  1.2056e-05  2.4492e-03  6.8087e-03  0:00:20   26
<aaslistener> 
   175  1.5975e-01  1.1506e-03  1.1271e-03  8.1155e-04  1.2078e-05  2.5050e-03  6.9816e-03  0:00:21   25
<aaslistener> 
   176  1.5846e-01  1.1459e-03  1.1316e-03  8.0995e-04  1.1988e-05  2.5579e-03  7.1632e-03  0:00:21   24

  iter  continuity  x-velocity  y-velocity  z-velocity      energy           k     epsilon     time/iter
<aaslistener> 
   177  1.5691e-01  1.1363e-03  1.1316e-03  8.0345e-04  1.1738e-05  2.5821e-03  7.2915e-03  0:00:20   23
<aaslistener> 
   178  1.5543e-01  1.1212e-03  1.1250e-03  7.9220e-04  1.1373e-05  2.5703e-03  7.3202e-03  0:00:20   22
<aaslistener> 
   179  1.5332e-01  1.1031e-03  1.1095e-03  7.7621e-04  1.0910e-05  2.5192e-03  7.2367e-03  0:00:19   21
<aaslistener> 
   180  1.5071e-01  1.0822e-03  1.0866e-03  7.5805e-04  1.0397e-05  2.4237e-03  7.0206e-03  0:00:19   20
<aaslistener> 
   181  1.4807e-01  1.0550e-03  1.0522e-03  7.3729e-04  9.9133e-06  2.3026e-03  6.6864e-03  0:00:18   19
<aaslistener> 
   182  1.4548e-01  1.0215e-03  1.0113e-03  7.1686e-04  9.3977e-06  2.1752e-03  6.3458e-03  0:00:17   18
<aaslistener> 
   183  1.4187e-01  9.8436e-04  9.6573e-04  6.9354e-04  8.8455e-06  2.0440e-03  6.0214e-03  0:00:13   17
<aaslistener> 
   184  1.3844e-01  9.4597e-04  9.1934e-04  6.6704e-04  8.3215e-06  1.9217e-03  5.6831e-03  0:00:13   16
<aaslistener> 
   185  1.3487e-01  9.0828e-04  8.7322e-04  6.3983e-04  7.8491e-06  1.8112e-03  5.3614e-03  0:00:13   15
<aaslistener> 
   186  1.3150e-01  8.7147e-04  8.3191e-04  6.1364e-04  7.4283e-06  1.7202e-03  5.1092e-03  0:00:12   14
<aaslistener> 
   187  1.2797e-01  8.3749e-04  7.9612e-04  5.8836e-04  7.0757e-06  1.6560e-03  4.9573e-03  0:00:12   13

  iter  continuity  x-velocity  y-velocity  z-velocity      energy           k     epsilon     time/iter
<aaslistener> 
   188  1.2513e-01  8.0602e-04  7.6520e-04  5.6494e-04  6.8023e-06  1.6134e-03  4.8462e-03  0:00:11   12
<aaslistener> 
   189  1.2203e-01  7.7958e-04  7.3694e-04  5.4334e-04  6.6150e-06  1.5844e-03  4.7710e-03  0:00:10   11
<aaslistener> 
   190  1.1840e-01  7.5481e-04  7.1115e-04  5.2195e-04  6.4779e-06  1.5609e-03  4.6591e-03  0:00:08   10
<aaslistener> 
   191  1.1445e-01  7.3249e-04  6.8860e-04  5.0104e-04  6.3838e-06  1.5384e-03  4.5138e-03  0:00:07    9
<aaslistener> 
   192  1.1085e-01  7.1091e-04  6.6862e-04  4.8024e-04  6.3205e-06  1.5169e-03  4.3568e-03  0:00:07    8
<aaslistener> 
   193  1.0706e-01  6.9203e-04  6.5115e-04  4.6073e-04  6.2988e-06  1.4941e-03  4.2105e-03  0:00:06    7
<aaslistener> 
   194  1.0352e-01  6.7598e-04  6.3726e-04  4.4422e-04  6.2854e-06  1.4750e-03  4.1097e-03  0:00:05    6
<aaslistener> 
   195  1.0115e-01  6.6387e-04  6.2642e-04  4.3077e-04  6.2743e-06  1.4609e-03  4.0420e-03  0:00:04    5
<aaslistener> 
   196  9.8955e-02  6.5625e-04  6.1762e-04  4.2041e-04  6.2640e-06  1.4481e-03  3.9965e-03  0:00:03    4
<aaslistener> 
   197  9.7282e-02  6.5133e-04  6.1089e-04  4.1350e-04  6.2604e-06  1.4313e-03  3.9694e-03  0:00:02    3
<aaslistener> 
   198  9.5888e-02  6.4795e-04  6.0549e-04  4.0973e-04  6.2320e-06  1.4062e-03  3.9424e-03  0:00:02    2

  iter  continuity  x-velocity  y-velocity  z-velocity      energy           k     epsilon     time/iter
<aaslistener> 
   199  9.5585e-02  6.4277e-04  6.0174e-04  4.0676e-04  6.1408e-06  1.3801e-03  3.9289e-03  0:00:01    1
<aaslistener> 
   200  9.6023e-02  6.3515e-04  5.9897e-04  4.0373e-04  6.0044e-06  1.3438e-03  3.8998e-03  0:00:00    0
/define/boundary/velocity-inlet (inlet)
inlet no no yes yes no 0.8333333457509677 no 0 no 303.15 no no yes 5 10/solve/initialize/compute-defaults/all-zonessolve iterate 100<aaslistener> 

  iter  continuity  x-velocity  y-velocity  z-velocity      energy           k     epsilon     time/iter
<aaslistener> 
   200  9.6023e-02  6.3515e-04  5.9897e-04  4.0373e-04  6.0044e-06  1.3438e-03  3.8998e-03  0:01:31  100
<aaslistener> 
   201  9.6159e-02  6.2409e-04  5.9611e-04  4.0072e-04  5.8725e-06  1.3066e-03  3.8368e-03  0:01:32   99
<aaslistener> 
   202  9.6099e-02  6.1169e-04  5.9139e-04  3.9739e-04  5.7364e-06  1.2693e-03  3.7484e-03  0:01:32   98
<aaslistener> 
   203  9.5921e-02  5.9621e-04  5.8583e-04  3.9220e-04  5.6089e-06  1.2359e-03  3.6508e-03  0:01:13   97
<aaslistener> 
   204  9.5555e-02  5.8124e-04  5.7896e-04  3.8537e-04  5.5514e-06  1.2141e-03  3.5661e-03  0:01:17   96
<aaslistener> 
   205  9.5203e-02  5.6709e-04  5.7300e-04  3.7766e-04  5.5176e-06  1.2000e-03  3.5159e-03  0:01:20   95
<aaslistener> 
   206  9.4873e-02  5.5567e-04  5.6688e-04  3.6995e-04  5.4997e-06  1.1877e-03  3.4668e-03  0:01:22   94
<aaslistener> 
   207  9.3866e-02  5.4605e-04  5.6212e-04  3.6401e-04  5.4915e-06  1.1818e-03  3.4065e-03  0:01:24   93
<aaslistener> 
   208  9.2850e-02  5.3913e-04  5.6028e-04  3.5986e-04  5.5095e-06  1.1898e-03  3.3399e-03  0:01:06   92
<aaslistener> 
   209  9.1903e-02  5.3459e-04  5.6349e-04  3.5660e-04  5.5274e-06  1.2111e-03  3.3082e-03  0:01:11   91
<aaslistener> 
   210  9.0658e-02  5.3312e-04  5.7264e-04  3.5270e-04  5.5518e-06  1.2481e-03  3.3667e-03  0:01:14   90

  iter  continuity  x-velocity  y-velocity  z-velocity      energy           k     epsilon     time/iter
<aaslistener> 
   211  8.9236e-02  5.3500e-04  5.8633e-04  3.4949e-04  5.5583e-06  1.2969e-03  3.5217e-03  0:01:16   89
<aaslistener> 
   212  8.7536e-02  5.4058e-04  6.0175e-04  3.4709e-04  5.5583e-06  1.3490e-03  3.7092e-03  0:01:18   88
<aaslistener> 
   213  8.5617e-02  5.5011e-04  6.1902e-04  3.4572e-04  5.5357e-06  1.4008e-03  3.9086e-03  0:01:19   87
<aaslistener> 
   214  8.3661e-02  5.6249e-04  6.3765e-04  3.4767e-04  5.5449e-06  1.4467e-03  4.1192e-03  0:01:20   86
<aaslistener> 
   215  8.1842e-02  5.7754e-04  6.5769e-04  3.5468e-04  5.5935e-06  1.4885e-03  4.3221e-03  0:01:20   85
<aaslistener> 
   216  8.0785e-02  5.9571e-04  6.7825e-04  3.6857e-04  5.7033e-06  1.5304e-03  4.5416e-03  0:01:03   84
<aaslistener> 
   217  8.0562e-02  6.1684e-04  6.9982e-04  3.8773e-04  5.8702e-06  1.5739e-03  4.7775e-03  0:01:07   83
<aaslistener> 
   218  8.1420e-02  6.4094e-04  7.2404e-04  4.0933e-04  6.0856e-06  1.6199e-03  4.9921e-03  0:01:09   82
<aaslistener> 
   219  8.3736e-02  6.6629e-04  7.4961e-04  4.3187e-04  6.3179e-06  1.6686e-03  5.1864e-03  0:01:11   81
<aaslistener> 
   220  8.6805e-02  6.9237e-04  7.7450e-04  4.5406e-04  6.5476e-06  1.7167e-03  5.3430e-03  0:01:12   80
<aaslistener> 
   221  9.0270e-02  7.1602e-04  7.9727e-04  4.7453e-04  6.7370e-06  1.7600e-03  5.4769e-03  0:01:13   79

  iter  continuity  x-velocity  y-velocity  z-velocity      energy           k     epsilon     time/iter
<aaslistener> 
   222  9.3737e-02  7.3643e-04  8.1495e-04  4.9160e-04  6.8883e-06  1.7903e-03  5.5687e-03  0:00:57   78
<aaslistener> 
   223  9.6753e-02  7.5136e-04  8.2724e-04  5.0474e-04  6.9872e-06  1.8052e-03  5.6124e-03  0:01:01   77
<aaslistener> 
   224  9.9953e-02  7.6371e-04  8.3242e-04  5.1334e-04  7.0288e-06  1.8009e-03  5.6139e-03  0:01:03   76
<aaslistener> 
   225  1.0297e-01  7.7361e-04  8.3049e-04  5.1846e-04  7.0296e-06  1.7920e-03  5.6140e-03  0:01:05   75
<aaslistener> 
   226  1.0564e-01  7.8230e-04  8.2260e-04  5.2068e-04  7.0121e-06  1.7765e-03  5.6170e-03  0:01:06   74
<aaslistener> 
   227  1.0773e-01  7.8943e-04  8.0921e-04  5.2070e-04  7.0167e-06  1.7674e-03  5.6395e-03  0:01:07   73
<aaslistener> 
   228  1.0983e-01  7.9519e-04  7.9129e-04  5.1976e-04  7.0595e-06  1.7724e-03  5.6905e-03  0:01:07   72
<aaslistener> 
   229  1.1128e-01  8.0228e-04  7.7333e-04  5.1927e-04  7.1472e-06  1.7869e-03  5.7961e-03  0:00:53   71
<aaslistener> 
   230  1.1206e-01  8.1039e-04  7.5958e-04  5.1892e-04  7.3169e-06  1.8059e-03  5.9174e-03  0:00:56   70
<aaslistener> 
   231  1.1261e-01  8.1842e-04  7.5210e-04  5.2042e-04  7.5670e-06  1.8310e-03  6.0512e-03  0:00:58   69
<aaslistener> 
   232  1.1303e-01  8.2534e-04  7.5326e-04  5.2343e-04  7.8216e-06  1.8589e-03  6.1808e-03  0:00:59   68

  iter  continuity  x-velocity  y-velocity  z-velocity      energy           k     epsilon     time/iter
<aaslistener> 
   233  1.1369e-01  8.3246e-04  7.6349e-04  5.2545e-04  8.0227e-06  1.8948e-03  6.3340e-03  0:01:00   67
<aaslistener> 
   234  1.1422e-01  8.3942e-04  7.8152e-04  5.2789e-04  8.1776e-06  1.9459e-03  6.5473e-03  0:00:47   66
<aaslistener> 
   235  1.1466e-01  8.4181e-04  8.0168e-04  5.3080e-04  8.2869e-06  1.9953e-03  6.7336e-03  0:00:50   65
<aaslistener> 
   236  1.1595e-01  8.3752e-04  8.2051e-04  5.3280e-04  8.3215e-06  2.0312e-03  6.8555e-03  0:00:52   64
<aaslistener> 
   237  1.1773e-01  8.2732e-04  8.3618e-04  5.3248e-04  8.2615e-06  2.0463e-03  6.8853e-03  0:00:54   63
<aaslistener> 
   238  1.1874e-01  8.1278e-04  8.4296e-04  5.2867e-04  8.1627e-06  2.0406e-03  6.8309e-03  0:00:55   62
<aaslistener> 
   239  1.1899e-01  7.9632e-04  8.4355e-04  5.2253e-04  8.0172e-06  2.0143e-03  6.6995e-03  0:00:55   61
<aaslistener> 
   240  1.1850e-01  7.7980e-04  8.3796e-04  5.1536e-04  7.8287e-06  1.9727e-03  6.5183e-03  0:00:56   60
<aaslistener> 
   241  1.1757e-01  7.6590e-04  8.2548e-04  5.0843e-04  7.6325e-06  1.9182e-03  6.2942e-03  0:00:55   59
<aaslistener> 
   242  1.1603e-01  7.5550e-04  8.0965e-04  5.0032e-04  7.4227e-06  1.8552e-03  6.0446e-03  0:00:55   58
<aaslistener> 
   243  1.1374e-01  7.4780e-04  7.8996e-04  4.9195e-04  7.2207e-06  1.7822e-03  5.7279e-03  0:00:55   57

  iter  continuity  x-velocity  y-velocity  z-velocity      energy           k     epsilon     time/iter
<aaslistener> 
   244  1.1140e-01  7.4250e-04  7.6898e-04  4.8496e-04  7.0520e-06  1.7103e-03  5.3851e-03  0:00:43   56
<aaslistener> 
   245  1.0954e-01  7.4074e-04  7.4668e-04  4.7886e-04  6.9371e-06  1.6604e-03  5.0775e-03  0:00:45   55
<aaslistener> 
   246  1.0793e-01  7.4489e-04  7.2605e-04  4.7538e-04  6.8968e-06  1.6362e-03  4.8453e-03  0:00:46   54
<aaslistener> 
   247  1.0718e-01  7.5292e-04  7.1059e-04  4.7409e-04  6.9170e-06  1.6263e-03  4.7352e-03  0:00:47   53
<aaslistener> 
   248  1.0755e-01  7.6110e-04  7.0244e-04  4.7533e-04  6.9807e-06  1.6262e-03  4.6974e-03  0:00:47   52
<aaslistener> 
   249  1.0835e-01  7.6694e-04  7.0047e-04  4.7785e-04  7.0733e-06  1.6333e-03  4.7140e-03  0:00:47   51
<aaslistener> 
   250  1.0881e-01  7.7051e-04  7.0620e-04  4.8141e-04  7.1939e-06  1.6494e-03  4.7754e-03  0:00:37   50
<aaslistener> 
   251  1.0945e-01  7.7278e-04  7.1509e-04  4.8433e-04  7.3401e-06  1.6833e-03  4.9023e-03  0:00:39   49
<aaslistener> 
   252  1.1052e-01  7.7599e-04  7.2682e-04  4.8892e-04  7.5090e-06  1.7309e-03  5.0999e-03  0:00:40   48
<aaslistener> 
   253  1.1133e-01  7.8001e-04  7.4343e-04  4.9581e-04  7.6863e-06  1.7847e-03  5.3257e-03  0:00:41   47
<aaslistener> 
   254  1.1283e-01  7.8588e-04  7.6166e-04  5.0262e-04  7.8442e-06  1.8386e-03  5.5733e-03  0:00:41   46

  iter  continuity  x-velocity  y-velocity  z-velocity      energy           k     epsilon     time/iter
<aaslistener> 
   255  1.1491e-01  7.9311e-04  7.8001e-04  5.0931e-04  7.9784e-06  1.8949e-03  5.8105e-03  0:00:41   45
<aaslistener> 
   256  1.1740e-01  8.0288e-04  7.9913e-04  5.1330e-04  8.0829e-06  1.9428e-03  6.0076e-03  0:00:41   44
<aaslistener> 
   257  1.2026e-01  8.1402e-04  8.1848e-04  5.1616e-04  8.1540e-06  1.9853e-03  6.1740e-03  0:00:41   43
<aaslistener> 
   258  1.2232e-01  8.2475e-04  8.3772e-04  5.1720e-04  8.1952e-06  2.0232e-03  6.2775e-03  0:00:32   42
<aaslistener> 
   259  1.2410e-01  8.3588e-04  8.5312e-04  5.1778e-04  8.1949e-06  2.0522e-03  6.3230e-03  0:00:33   41
<aaslistener> 
   260  1.2567e-01  8.4944e-04  8.6487e-04  5.1903e-04  8.1817e-06  2.0695e-03  6.3021e-03  0:00:34   40
<aaslistener> 
   261  1.2718e-01  8.6618e-04  8.7275e-04  5.2220e-04  8.1724e-06  2.0711e-03  6.1883e-03  0:00:34   39
<aaslistener> 
   262  1.2859e-01  8.8615e-04  8.7660e-04  5.2995e-04  8.1833e-06  2.0673e-03  6.0184e-03  0:00:34   38
<aaslistener> 
   263  1.3018e-01  9.0388e-04  8.7702e-04  5.4121e-04  8.2047e-06  2.0561e-03  5.8163e-03  0:00:34   37
<aaslistener> 
   264  1.3195e-01  9.2228e-04  8.7621e-04  5.5466e-04  8.2677e-06  2.0506e-03  5.5909e-03  0:00:27   36
<aaslistener> 
   265  1.3324e-01  9.3929e-04  8.7361e-04  5.6899e-04  8.3396e-06  2.0495e-03  5.3739e-03  0:00:28   35

  iter  continuity  x-velocity  y-velocity  z-velocity      energy           k     epsilon     time/iter
<aaslistener> 
   266  1.3527e-01  9.5609e-04  8.7129e-04  5.8514e-04  8.4380e-06  2.0492e-03  5.1840e-03  0:00:28   34
<aaslistener> 
   267  1.3745e-01  9.7230e-04  8.7223e-04  6.0167e-04  8.5882e-06  2.0444e-03  5.0449e-03  0:00:29   33
<aaslistener> 
   268  1.3912e-01  9.9047e-04  8.7482e-04  6.1845e-04  8.7589e-06  2.0345e-03  4.9908e-03  0:00:29   32
<aaslistener> 
   269  1.4121e-01  1.0057e-03  8.7810e-04  6.3387e-04  8.8917e-06  2.0245e-03  4.9561e-03  0:00:28   31
<aaslistener> 
   270  1.4356e-01  1.0155e-03  8.8487e-04  6.4833e-04  8.9660e-06  2.0070e-03  4.9113e-03  0:00:22   30
<aaslistener> 
   271  1.4556e-01  1.0210e-03  8.8783e-04  6.6012e-04  9.0089e-06  1.9848e-03  4.8721e-03  0:00:23   29
<aaslistener> 
   272  1.4748e-01  1.0184e-03  8.8985e-04  6.6733e-04  9.0845e-06  1.9532e-03  4.8243e-03  0:00:23   28
<aaslistener> 
   273  1.4862e-01  1.0070e-03  8.8721e-04  6.6960e-04  9.1559e-06  1.9186e-03  4.7656e-03  0:00:23   27
<aaslistener> 
   274  1.4869e-01  9.8960e-04  8.8094e-04  6.6932e-04  9.1721e-06  1.8796e-03  4.7078e-03  0:00:23   26
<aaslistener> 
   275  1.4784e-01  9.6737e-04  8.7232e-04  6.6573e-04  9.1284e-06  1.8359e-03  4.6718e-03  0:00:23   25
<aaslistener> 
   276  1.4639e-01  9.4203e-04  8.6020e-04  6.5721e-04  9.0183e-06  1.7905e-03  4.6241e-03  0:00:18   24

  iter  continuity  x-velocity  y-velocity  z-velocity      energy           k     epsilon     time/iter
<aaslistener> 
   277  1.4420e-01  9.1729e-04  8.4566e-04  6.4536e-04  8.9045e-06  1.7505e-03  4.6002e-03  0:00:18   23
<aaslistener> 
   278  1.4163e-01  8.9239e-04  8.3174e-04  6.2955e-04  8.8470e-06  1.7224e-03  4.6112e-03  0:00:18   22
<aaslistener> 
   279  1.3875e-01  8.7299e-04  8.1929e-04  6.1396e-04  8.7967e-06  1.7104e-03  4.6664e-03  0:00:18   21
<aaslistener> 
   280  1.3601e-01  8.5847e-04  8.1005e-04  5.9808e-04  8.7292e-06  1.7202e-03  4.7473e-03  0:00:18   20
<aaslistener> 
   281  1.3311e-01  8.4882e-04  8.0379e-04  5.8336e-04  8.6610e-06  1.7402e-03  4.8248e-03  0:00:17   19
<aaslistener> 
   282  1.3003e-01  8.4435e-04  8.0321e-04  5.7142e-04  8.6165e-06  1.7670e-03  4.9214e-03  0:00:17   18
<aaslistener> 
   283  1.2727e-01  8.4111e-04  8.0555e-04  5.6209e-04  8.6126e-06  1.7931e-03  5.0163e-03  0:00:13   17
<aaslistener> 
   284  1.2441e-01  8.3964e-04  8.1015e-04  5.5483e-04  8.6751e-06  1.8170e-03  5.1088e-03  0:00:13   16
<aaslistener> 
   285  1.2228e-01  8.4133e-04  8.1701e-04  5.5110e-04  8.7741e-06  1.8412e-03  5.2174e-03  0:00:13   15
<aaslistener> 
   286  1.2028e-01  8.4594e-04  8.2580e-04  5.5076e-04  8.9086e-06  1.8731e-03  5.3688e-03  0:00:12   14
<aaslistener> 
   287  1.1838e-01  8.5258e-04  8.3987e-04  5.5398e-04  9.0687e-06  1.9093e-03  5.5605e-03  0:00:12   13

  iter  continuity  x-velocity  y-velocity  z-velocity      energy           k     epsilon     time/iter
<aaslistener> 
   288  1.1711e-01  8.6253e-04  8.5918e-04  5.6102e-04  9.2799e-06  1.9508e-03  5.7621e-03  0:00:11   12
<aaslistener> 
   289  1.1669e-01  8.7641e-04  8.8410e-04  5.7125e-04  9.5564e-06  2.0054e-03  5.9837e-03  0:00:10   11
<aaslistener> 
   290  1.1718e-01  8.9313e-04  9.1383e-04  5.8590e-04  9.8687e-06  2.0739e-03  6.2407e-03  0:00:07   10
<aaslistener> 
   291  1.1866e-01  9.1620e-04  9.5073e-04  6.0426e-04  1.0219e-05  2.1540e-03  6.5183e-03  0:00:07    9
<aaslistener> 
   292  1.2187e-01  9.4207e-04  9.9262e-04  6.2540e-04  1.0604e-05  2.2478e-03  6.8105e-03  0:00:07    8
<aaslistener> 
   293  1.2650e-01  9.7321e-04  1.0370e-03  6.4759e-04  1.1038e-05  2.3465e-03  7.1093e-03  0:00:06    7
<aaslistener> 
   294  1.3150e-01  1.0099e-03  1.0829e-03  6.7139e-04  1.1494e-05  2.4515e-03  7.4131e-03  0:00:05    6
<aaslistener> 
   295  1.3635e-01  1.0537e-03  1.1305e-03  6.9764e-04  1.1938e-05  2.5625e-03  7.7183e-03  0:00:05    5
<aaslistener> 
   296  1.4157e-01  1.1051e-03  1.1814e-03  7.2477e-04  1.2419e-05  2.6791e-03  8.0225e-03  0:00:04    4
<aaslistener> 
   297  1.4690e-01  1.1638e-03  1.2275e-03  7.5036e-04  1.2899e-05  2.7872e-03  8.3087e-03  0:00:03    3
<aaslistener> 
   298  1.5278e-01  1.2226e-03  1.2708e-03  7.7637e-04  1.3366e-05  2.8879e-03  8.6326e-03  0:00:02    2

  iter  continuity  x-velocity  y-velocity  z-velocity      energy           k     epsilon     time/iter
<aaslistener> 
   299  1.5892e-01  1.2794e-03  1.3077e-03  8.0359e-04  1.3824e-05  2.9856e-03  8.9590e-03  0:00:01    1
<aaslistener> 
   300  1.6421e-01  1.3291e-03  1.3408e-03  8.3108e-04  1.4226e-05  3.0744e-03  9.2987e-03  0:00:00    0
/define/boundary/velocity-inlet (inlet)
inlet no no yes yes no 0.8333333457509677 no 0 no 303.15 no no yes 5 10/solve/initialize/compute-defaults/all-zonessolve iterate 100<aaslistener> 

  iter  continuity  x-velocity  y-velocity  z-velocity      energy           k     epsilon     time/iter
<aaslistener> 
   300  1.6421e-01  1.3291e-03  1.3408e-03  8.3108e-04  1.4226e-05  3.0744e-03  9.2987e-03  0:01:21  100
<aaslistener> 
   301  1.7117e-01  1.3734e-03  1.3696e-03  8.6094e-04  1.4571e-05  3.1434e-03  9.6547e-03  0:01:04   99
<aaslistener> 
   302  1.7877e-01  1.4118e-03  1.3951e-03  8.9210e-04  1.4877e-05  3.1836e-03  9.8874e-03  0:01:11   98
<aaslistener> 
   303  1.8530e-01  1.4400e-03  1.4244e-03  9.2600e-04  1.5087e-05  3.2323e-03  1.0194e-02  0:01:15   97
<aaslistener> 
   304  1.9236e-01  1.4565e-03  1.4555e-03  9.6034e-04  1.5248e-05  3.2695e-03  1.0452e-02  0:01:19   96
<aaslistener> 
   305  1.9989e-01  1.4649e-03  1.4854e-03  9.9336e-04  1.5379e-05  3.2916e-03  1.0584e-02  0:01:21   95
<aaslistener> 
   306  2.0783e-01  1.4637e-03  1.5126e-03  1.0224e-03  1.5487e-05  3.3117e-03  1.0642e-02  0:01:23   94
<aaslistener> 
   307  2.1461e-01  1.4569e-03  1.5294e-03  1.0455e-03  1.5602e-05  3.3540e-03  1.0758e-02  0:01:24   93
<aaslistener> 
   308  2.1927e-01  1.4439e-03  1.5371e-03  1.0555e-03  1.5681e-05  3.3813e-03  1.0856e-02  0:01:07   92
<aaslistener> 
   309  2.2318e-01  1.4284e-03  1.5400e-03  1.0500e-03  1.5756e-05  3.4422e-03  1.1219e-02  0:01:11   91
<aaslistener> 
   310  2.2442e-01  1.4178e-03  1.5391e-03  1.0417e-03  1.5886e-05  3.4687e-03  1.1499e-02  0:01:14   90

  iter  continuity  x-velocity  y-velocity  z-velocity      energy           k     epsilon     time/iter
<aaslistener> 
   311  2.2374e-01  1.4222e-03  1.5286e-03  1.0289e-03  1.6106e-05  3.4855e-03  1.1533e-02  0:01:17   89
<aaslistener> 
   312  2.2175e-01  1.4370e-03  1.5153e-03  1.0154e-03  1.6404e-05  3.4933e-03  1.1472e-02  0:01:18   88
<aaslistener> 
   313  2.1811e-01  1.4615e-03  1.4983e-03  1.0022e-03  1.6726e-05  3.5291e-03  1.1297e-02  0:01:19   87
<aaslistener> 
   314  2.1438e-01  1.4898e-03  1.4886e-03  9.9995e-04  1.7064e-05  3.5817e-03  1.1048e-02  0:01:20   86
<aaslistener> 
   315  2.1261e-01  1.5192e-03  1.4905e-03  1.0025e-03  1.7386e-05  3.5857e-03  1.0740e-02  0:01:03   85
<aaslistener> 
   316  2.1170e-01  1.5519e-03  1.5004e-03  1.0048e-03  1.7665e-05  3.6187e-03  1.0404e-02  0:01:07   84
<aaslistener> 
   317  2.1172e-01  1.5745e-03  1.5144e-03  1.0041e-03  1.7780e-05  3.6120e-03  1.0196e-02  0:01:09   83
<aaslistener> 
   318  2.1214e-01  1.5882e-03  1.5243e-03  1.0070e-03  1.7814e-05  3.5830e-03  1.0092e-02  0:01:11   82
<aaslistener> 
   319  2.1187e-01  1.5922e-03  1.5260e-03  1.0133e-03  1.7907e-05  3.5343e-03  1.0254e-02  0:01:12   81
<aaslistener> 
   320  2.1097e-01  1.5767e-03  1.5206e-03  1.0255e-03  1.7817e-05  3.3774e-03  1.0096e-02  0:01:13   80
<aaslistener> 
   321  2.0878e-01  1.5410e-03  1.4973e-03  1.0300e-03  1.7646e-05  3.2614e-03  9.8047e-03  0:01:14   79

  iter  continuity  x-velocity  y-velocity  z-velocity      energy           k     epsilon     time/iter
<aaslistener> 
   322  2.0616e-01  1.4933e-03  1.4593e-03  1.0273e-03  1.7552e-05  3.1754e-03  9.6977e-03  0:00:58   78
<aaslistener> 
   323  2.0377e-01  1.4449e-03  1.4251e-03  1.0203e-03  1.7618e-05  3.0907e-03  9.5395e-03  0:01:01   77
<aaslistener> 
   324  2.0247e-01  1.4095e-03  1.4017e-03  1.0113e-03  1.7735e-05  3.0192e-03  9.3762e-03  0:01:04   76
<aaslistener> 
   325  2.0184e-01  1.3927e-03  1.3929e-03  1.0067e-03  1.7807e-05  2.9674e-03  9.2109e-03  0:01:05   75
<aaslistener> 
   326  2.0235e-01  1.3987e-03  1.3935e-03  1.0031e-03  1.7809e-05  2.9645e-03  9.0729e-03  0:01:06   74
<aaslistener> 
   327  2.0371e-01  1.4152e-03  1.3954e-03  9.9678e-04  1.7749e-05  2.9880e-03  8.9914e-03  0:01:07   73
<aaslistener> 
   328  2.0637e-01  1.4408e-03  1.3887e-03  9.9481e-04  1.7614e-05  3.0147e-03  8.8489e-03  0:00:53   72
<aaslistener> 
   329  2.0777e-01  1.4714e-03  1.3774e-03  9.9368e-04  1.7261e-05  3.0320e-03  8.6281e-03  0:00:56   71
<aaslistener> 
   330  2.0947e-01  1.4936e-03  1.3638e-03  9.9242e-04  1.6784e-05  3.0189e-03  8.3748e-03  0:00:58   70
<aaslistener> 
   331  2.1037e-01  1.5034e-03  1.3447e-03  9.8711e-04  1.6203e-05  2.9792e-03  8.0905e-03  0:01:00   69
<aaslistener> 
   332  2.0968e-01  1.5043e-03  1.3253e-03  9.7905e-04  1.5599e-05  2.9114e-03  7.7868e-03  0:01:01   68

  iter  continuity  x-velocity  y-velocity  z-velocity      energy           k     epsilon     time/iter
<aaslistener> 
   333  2.0646e-01  1.4973e-03  1.3033e-03  9.6903e-04  1.4982e-05  2.8378e-03  7.4932e-03  0:01:01   67
<aaslistener> 
   334  2.0154e-01  1.4847e-03  1.2836e-03  9.5585e-04  1.4490e-05  2.7759e-03  7.2519e-03  0:01:01   66
<aaslistener> 
   335  1.9693e-01  1.4624e-03  1.2799e-03  9.3894e-04  1.4196e-05  2.7449e-03  7.1040e-03  0:00:48   65
<aaslistener> 
   336  1.9260e-01  1.4332e-03  1.2988e-03  9.2534e-04  1.4175e-05  2.7538e-03  7.1929e-03  0:00:51   64
<aaslistener> 
   337  1.8800e-01  1.4036e-03  1.3329e-03  9.1597e-04  1.4318e-05  2.8155e-03  7.5296e-03  0:00:53   63
<aaslistener> 
   338  1.8452e-01  1.3810e-03  1.3761e-03  9.0956e-04  1.4551e-05  2.9142e-03  8.0456e-03  0:00:54   62
<aaslistener> 
   339  1.8333e-01  1.3660e-03  1.4169e-03  9.0800e-04  1.4776e-05  3.0291e-03  8.5970e-03  0:00:55   61
<aaslistener> 
   340  1.8385e-01  1.3654e-03  1.4457e-03  9.1085e-04  1.5014e-05  3.1456e-03  9.1415e-03  0:00:55   60
<aaslistener> 
   341  1.8560e-01  1.3812e-03  1.4595e-03  9.1477e-04  1.5285e-05  3.2458e-03  9.6063e-03  0:00:43   59
<aaslistener> 
   342  1.8915e-01  1.4144e-03  1.4588e-03  9.1823e-04  1.5646e-05  3.3582e-03  1.0033e-02  0:00:46   58
<aaslistener> 
   343  1.9218e-01  1.4674e-03  1.4544e-03  9.2079e-04  1.6147e-05  3.4811e-03  1.0512e-02  0:00:47   57

  iter  continuity  x-velocity  y-velocity  z-velocity      energy           k     epsilon     time/iter
<aaslistener> 
   344  1.9541e-01  1.5268e-03  1.4601e-03  9.2429e-04  1.6741e-05  3.6029e-03  1.0919e-02  0:00:48   56
<aaslistener> 
   345  1.9704e-01  1.5843e-03  1.4737e-03  9.3334e-04  1.7271e-05  3.6905e-03  1.1205e-02  0:00:49   55
<aaslistener> 
   346  1.9729e-01  1.6344e-03  1.4908e-03  9.4783e-04  1.7737e-05  3.7153e-03  1.1293e-02  0:00:49   54
<aaslistener> 
   347  1.9782e-01  1.6786e-03  1.5125e-03  9.6878e-04  1.8063e-05  3.6999e-03  1.1268e-02  0:00:49   53
<aaslistener> 
   348  2.0192e-01  1.7034e-03  1.5432e-03  1.0000e-03  1.8083e-05  3.6742e-03  1.1177e-02  0:00:39   52
<aaslistener> 
   349  2.0629e-01  1.6963e-03  1.5805e-03  1.0363e-03  1.7942e-05  3.6345e-03  1.0978e-02  0:00:41   51
<aaslistener> 
   350  2.1069e-01  1.6616e-03  1.6169e-03  1.0673e-03  1.7684e-05  3.5826e-03  1.0735e-02  0:00:42   50
<aaslistener> 
   351  2.1549e-01  1.6140e-03  1.6514e-03  1.0878e-03  1.7202e-05  3.5419e-03  1.0678e-02  0:00:43   49
<aaslistener> 
   352  2.2033e-01  1.5612e-03  1.6771e-03  1.0975e-03  1.6796e-05  3.5183e-03  1.0781e-02  0:00:43   48
<aaslistener> 
   353  2.2547e-01  1.5122e-03  1.6861e-03  1.0943e-03  1.6404e-05  3.4848e-03  1.0889e-02  0:00:43   47
<aaslistener> 
   354  2.2992e-01  1.4800e-03  1.6683e-03  1.0775e-03  1.6153e-05  3.4565e-03  1.0877e-02  0:00:34   46

  iter  continuity  x-velocity  y-velocity  z-velocity      energy           k     epsilon     time/iter
<aaslistener> 
   355  2.3162e-01  1.4774e-03  1.6307e-03  1.0572e-03  1.6070e-05  3.4117e-03  1.0705e-02  0:00:35   45
<aaslistener> 
   356  2.2972e-01  1.5023e-03  1.5794e-03  1.0340e-03  1.6015e-05  3.3616e-03  1.0424e-02  0:00:36   44
<aaslistener> 
   357  2.2727e-01  1.5415e-03  1.5287e-03  1.0118e-03  1.6003e-05  3.3104e-03  1.0049e-02  0:00:37   43
<aaslistener> 
   358  2.2545e-01  1.5794e-03  1.4826e-03  9.9197e-04  1.6048e-05  3.2535e-03  9.5964e-03  0:00:37   42
