
              Welcome to ANSYS Fluent 2020 R2

              Copyright 1987-2020 ANSYS, Inc. All Rights Reserved.
              Unauthorized use, distribution or duplication is prohibited.
              This product is subject to U.S. laws governing export and re-export.
              For full Legal Notice, see documentation.

Build Time: May 29 2020 07:26:53 EDT  Build Id: 10176  
 

*********************************************
Info: Your license enables 4-way parallel execution.
For faster simulations, please start the application with the appropriate parallel options.
*********************************************

Host spawning Node 0 on machine "wenzheshang" (win64).

-------------------------------------------------------------------------------
ID    Hostname     Core  O.S.         PID   Vendor                     
-------------------------------------------------------------------------------
n0    wenzheshang  1/12  Windows-x64  4696  Intel(R) Core(TM) i7-8750H 
host  wenzheshang        Windows-x64  2116  Intel(R) Core(TM) i7-8750H 

MPI Option Selected: intel
-------------------------------------------------------------------------------

Cleanup script file is f:\\Thinking\\program\\BELab1.0\\Workdata\\Fluent_Python\\2023-02-12_17-36\\cleanup-fluent-wenzheshang-2116.bat

Opening wrapper library "F:\\ANASYS\\ANSYS Inc\\v202\\fluent/../commonfiles/AAS/bin/winx64/COWrapper.dll"...

Done.
Loading "F:/ANASYS/ANSYS Inc/v202/fluent/../commonfiles/AAS/bin/winx64/cowrapper.scm"
Done.
(define (aaslistener-func iter time-step) (display "<aaslistener> 
") '() )aaslistener-func
(define (aaslistener-func-freq) 1)aaslistener-func-freq
(register-solution-monitor 'aaslistener-func aaslistener-func #f aaslistener-func-freq)monitor-lambdas
(rpsetvar 'co-simulation/ior_ICoFluentUnit "IOR:010000002000000049444c3a4141535f434f5242412f49436f466c75656e74556e69743a312e3000020000000000000070000000010102000f0000003137322e32332e3139342e31383500f7b2f700001b00000014010f0052535450b3e863f0c10e000100000001000000020000000002000000000000000800000001000000004f4154010000001800000001003a000100010001000000010001050901010000000000000000006c000000010102000d0000003137322e31392e3232342e310035b2f71b00000014010f0052535450b3e863f0c10e000100000001000000020000000202000000000000000800000001000000004f41540100000018000000010000000100010001000000010001050901010000000000")co-simulation/ior_icofluentunit
(rp-var-define 'co-simulation/ior_ExceptionHolder "IOR:010000003000000049444c3a4141535f434f5242412f466c75656e742f49466c75656e74457863657074696f6e486f6c6465723a312e3000020000000000000070000000010102000f0000003137322e32332e3139342e31383500f7b0f700001b00000014010f0052535450b3e86309be0e000000000001000000010000000002000000000000000800000001003a00004f415401000000180000000150535f0100010001000000010001050901010000000000000000006c000000010102000d0000003137322e31392e3232342e310035b0f71b00000014010f0052535450b3e86309be0e00000000000100000001000000010200000000000000080000000129009f004f415401000000180000000175929b0100010001000000010001050901010000000000" 'string #f)co-simulation/ior_exceptionholder
(rpsetvar 'co-simulation/ior_ExceptionHolder "IOR:010000003000000049444c3a4141535f434f5242412f466c75656e742f49466c75656e74457863657074696f6e486f6c6465723a312e3000020000000000000070000000010102000f0000003137322e32332e3139342e31383500f7b0f700001b00000014010f0052535450b3e86309be0e000000000001000000010000000002000000000000000800000001003a00004f415401000000180000000150535f0100010001000000010001050901010000000000000000006c000000010102000d0000003137322e31392e3232342e310035b0f71b00000014010f0052535450b3e86309be0e00000000000100000001000000010200000000000000080000000129009f004f415401000000180000000175929b0100010001000000010001050901010000000000")co-simulation/ior_exceptionholder

