
              Welcome to ANSYS Fluent 2020 R2

              Copyright 1987-2020 ANSYS, Inc. All Rights Reserved.
              Unauthorized use, distribution or duplication is prohibited.
              This product is subject to U.S. laws governing export and re-export.
              For full Legal Notice, see documentation.

Build Time: May 29 2020 07:22:43 EDT  Build Id: 10176  
 

*********************************************
Info: Your license enables 4-way parallel execution.
For faster simulations, please start the application with the appropriate parallel options.
*********************************************

Host spawning Node 0 on machine "wenzheshang" (win64).

-------------------------------------------------------------------------------
ID    Hostname     Core  O.S.         PID    Vendor                     
-------------------------------------------------------------------------------
n0    wenzheshang  1/12  Windows-x64  10584  Intel(R) Core(TM) i7-8750H 
host  wenzheshang        Windows-x64  13696  Intel(R) Core(TM) i7-8750H 

MPI Option Selected: intel
-------------------------------------------------------------------------------

Cleanup script file is f:\\Thinking\\program\\BELab1.0\\Workdata\\Fluent_Python\\2023-02-17_22-15\\cleanup-fluent-wenzheshang-13696.bat

Opening wrapper library "F:\\ANASYS\\ANSYS Inc\\v202\\fluent/../commonfiles/AAS/bin/winx64/COWrapper.dll"...

Done.
Loading "F:/ANASYS/ANSYS Inc/v202/fluent/../commonfiles/AAS/bin/winx64/cowrapper.scm"
Done.
(define (aaslistener-func iter time-step) (display "<aaslistener> 
") '() )aaslistener-func
(define (aaslistener-func-freq) 1)aaslistener-func-freq
(register-solution-monitor 'aaslistener-func aaslistener-func #f aaslistener-func-freq)monitor-lambdas
(rpsetvar 'co-simulation/ior_ICoFluentUnit "IOR:010000002000000049444c3a4141535f434f5242412f49436f466c75656e74556e69743a312e3000020000000000000070000000010102000f0000003137322e32332e3139342e313835000055f700001b00000014010f00525354308cef6324eb0b000100000001000000020000000002000000000000000800000001000000004f41540100000018000000010000000100010001000000010001050901010000000000000000006c000000010102000b0000003137322e31372e302e31003155f700001b00000014010f00525354308cef6324eb0b000100000001000000020000000202000000000000000800000001000000004f41540100000018000000010000000100010001000000010001050901010000000000")co-simulation/ior_icofluentunit
(rp-var-define 'co-simulation/ior_ExceptionHolder "IOR:010000003000000049444c3a4141535f434f5242412f466c75656e742f49466c75656e74457863657074696f6e486f6c6465723a312e3000020000000000000070000000010102000f0000003137322e32332e3139342e313835000053f700001b00000014010f00525354308cef635ee70b000000000001000000010000000002000000000000000800000001015fd1004f4154010000001800000001015fd10100010001000000010001050901010000000000000000006c000000010102000b0000003137322e31372e302e31003153f700001b00000014010f00525354308cef635ee70b000000000001000000010000000102000000000000000800000001015fd1004f4154010000001800000001015fd10100010001000000010001050901010000000000" 'string #f)co-simulation/ior_exceptionholder
(rpsetvar 'co-simulation/ior_ExceptionHolder "IOR:010000003000000049444c3a4141535f434f5242412f466c75656e742f49466c75656e74457863657074696f6e486f6c6465723a312e3000020000000000000070000000010102000f0000003137322e32332e3139342e313835000053f700001b00000014010f00525354308cef635ee70b000000000001000000010000000002000000000000000800000001015fd1004f4154010000001800000001015fd10100010001000000010001050901010000000000000000006c000000010102000b0000003137322e31372e302e31003153f700001b00000014010f00525354308cef635ee70b000000000001000000010000000102000000000000000800000001015fd1004f4154010000001800000001015fd10100010001000000010001050901010000000000")co-simulation/ior_exceptionholder

> 
Reading "F:/Thinking/mesh/vadilation/roomesh.msh"...

Buffering for file scan...

   59319 nodes, binary.
    9602 nodes, binary.
  187200 quadrilateral interior faces, zone  1, binary.
    1600 quadrilateral wall faces, zone  5, binary.
    1600 quadrilateral wall faces, zone  6, binary.
     160 quadrilateral velocity-inlet faces, zone  7, binary.
     160 quadrilateral pressure-outlet faces, zone  8, binary.
    1600 quadrilateral wall faces, zone  9, binary.
    1600 quadrilateral wall faces, zone 10, binary.
    1440 quadrilateral wall faces, zone 11, binary.
    1440 quadrilateral wall faces, zone 12, binary.
   64000 hexahedral cells, zone  4, binary.

Building...
     mesh
     materials,
     interface,
     domains,
     zones,
	wall-front
	wall-back
	wall-left
	wall-right
	outlet
	inlet
	wall-floor
	wall-ceiling
	cell-fuild
	interior-cell-fuild
     parallel,
Done.

Preparing mesh for display...
Done.
/define/model viscous ke-rng yes/define/model energy yes no no no no/define/operating-conditions gravity yes 0 9.8
Error: arg(2nd) out of range in string-ref
Error Object: 0

Reading "F:/Thinking/mesh/vadilation/roomesh.msh"...

Buffering for file scan...


       Clearing partially read grid.
   59319 nodes, binary.
    9602 nodes, binary.
  187200 quadrilateral interior faces, zone  1, binary.
    1600 quadrilateral wall faces, zone  5, binary.
    1600 quadrilateral wall faces, zone  6, binary.
     160 quadrilateral velocity-inlet faces, zone  7, binary.
     160 quadrilateral pressure-outlet faces, zone  8, binary.
    1600 quadrilateral wall faces, zone  9, binary.
    1600 quadrilateral wall faces, zone 10, binary.
    1440 quadrilateral wall faces, zone 11, binary.
    1440 quadrilateral wall faces, zone 12, binary.
   64000 hexahedral cells, zone  4, binary.

Building...
     mesh
     materials,
     interface,
     domains,
     zones,
	wall-front
	wall-back
	wall-left
	wall-right
	outlet
	inlet
	wall-floor
	wall-ceiling
	cell-fuild
	interior-cell-fuild
     parallel,
Done.

Preparing mesh for display...
Done.
/define/model viscous ke-rng yes/define/model energy yes no no no no/define/operating-conditions gravity yes 0 9.8/define/boundary/wall (wall-ceiling wall-floor wall-right wall-left wall-back wall-front)
wall-front 0 no 0 no yes temperature no 283.15(cx-gui-do cx-set-list-tree-selections "NavigationPane*List_Tree1" (list "Setup|Boundary Conditions|Inlet|inlet (velocity-inlet, id=7)"))
(cx-gui-do cx-set-list-tree-selections "NavigationPane*List_Tree1" (list "Setup|Boundary Conditions|Inlet|inlet (velocity-inlet, id=7)"))
(cx-gui-do cx-activate-item "NavigationPane*List_Tree1")
(cx-gui-do cx-set-list-tree-selections "NavigationPane*List_Tree1" (list "Setup|Boundary Conditions|Inlet|inlet (velocity-inlet, id=7)"))
(cx-gui-do cx-activate-tab-index "Velocity Inlet*Frame2*Frame2" 0)
(cx-gui-do cx-activate-tab-index "Velocity Inlet*Frame2*Frame2" 1)
(cx-gui-do cx-activate-tab-index "Velocity Inlet*Frame2*Frame2" 0)
(cx-gui-do cx-activate-tab-index "Velocity Inlet*Frame2*Frame2" 2)
(cx-gui-do cx-activate-tab-index "Velocity Inlet*Frame2*Frame2" 0)
(cx-gui-do cx-activate-tab-index "Velocity Inlet*Frame2*Frame2" 3)
(cx-gui-do cx-activate-tab-index "Velocity Inlet*Frame2*Frame2" 0)
(cx-gui-do cx-activate-tab-index "Velocity Inlet*Frame2*Frame2" 4)
(cx-gui-do cx-activate-tab-index "Velocity Inlet*Frame2*Frame2" 0)
(cx-gui-do cx-activate-tab-index "Velocity Inlet*Frame2*Frame2" 5)
(cx-gui-do cx-activate-tab-index "Velocity Inlet*Frame2*Frame2" 0)
(cx-gui-do cx-activate-tab-index "Velocity Inlet*Frame2*Frame2" 6)
(cx-gui-do cx-activate-tab-index "Velocity Inlet*Frame2*Frame2" 0)
(cx-gui-do cx-activate-tab-index "Velocity Inlet*Frame2*Frame2" 7)
(cx-gui-do cx-activate-tab-index "Velocity Inlet*Frame2*Frame2" 0)
(cx-gui-do cx-activate-tab-index "Velocity Inlet*Frame2*Frame2" 1)
(cx-gui-do cx-activate-tab-index "Velocity Inlet*Frame2*Frame2" 0)
(cx-gui-do cx-activate-item "Velocity Inlet*PanelButtons*PushButton2(Cancel)")
/define/boundary/outflow invalid command [outflow]
outlet(cx-gui-do cx-set-list-tree-selections "NavigationPane*List_Tree1" (list "Setup|Boundary Conditions|Outlet|outlet (pressure-outlet, id=8)"))
(cx-gui-do cx-set-list-tree-selections "NavigationPane*List_Tree1" (list "Setup|Boundary Conditions|Outlet|outlet (pressure-outlet, id=8)"))
(cx-gui-do cx-activate-item "NavigationPane*List_Tree1")
(cx-gui-do cx-set-list-tree-selections "NavigationPane*List_Tree1" (list "Setup|Boundary Conditions|Outlet|outlet (pressure-outlet, id=8)"))
(cx-gui-do cx-activate-tab-index "Pressure Outlet*Frame2*Frame2" 0)
(cx-gui-do cx-activate-tab-index "Pressure Outlet*Frame2*Frame2" 1)
(cx-gui-do cx-activate-tab-index "Pressure Outlet*Frame2*Frame2" 0)
(cx-gui-do cx-activate-tab-index "Pressure Outlet*Frame2*Frame2" 2)
(cx-gui-do cx-activate-tab-index "Pressure Outlet*Frame2*Frame2" 0)
(cx-gui-do cx-activate-tab-index "Pressure Outlet*Frame2*Frame2" 3)
(cx-gui-do cx-activate-tab-index "Pressure Outlet*Frame2*Frame2" 0)
(cx-gui-do cx-activate-tab-index "Pressure Outlet*Frame2*Frame2" 4)
(cx-gui-do cx-activate-tab-index "Pressure Outlet*Frame2*Frame2" 0)
(cx-gui-do cx-activate-tab-index "Pressure Outlet*Frame2*Frame2" 5)
(cx-gui-do cx-activate-tab-index "Pressure Outlet*Frame2*Frame2" 0)
(cx-gui-do cx-activate-tab-index "Pressure Outlet*Frame2*Frame2" 6)
(cx-gui-do cx-activate-tab-index "Pressure Outlet*Frame2*Frame2" 0)
(cx-gui-do cx-activate-tab-index "Pressure Outlet*Frame2*Frame2" 7)
(cx-gui-do cx-activate-tab-index "Pressure Outlet*Frame2*Frame2" 0)
(cx-gui-do cx-activate-item "Pressure Outlet*PanelButtons*PushButton2(Cancel)")

adjoint/                mesh/                   solve/
define/                 parallel/               surface/
display/                plot/                   views/
exit                    preferences/
file/                   report/

> define

/define> velocity-inlet
invalid command [velocity-inlet]

/define> /velocity-inlet
invalid command [velocity-inlet]

/define> boundary

/define/boundary-conditions> velocity-inlet
(inlet)
zone id/name [inlet] inet
Invalid zone.
zone id/name [inlet] inlet
Velocity Specification Method: Magnitude and Direction [no] /define/boundary/wall (wall-ceiling wall-floor wall-right wall-left wall-back wall-front)
wall-floor 0 no 0 no yes temperature no 303.15/solve/initialize/compute-defaults/all-zonessolve iterate 1000
Initialize using the hybrid initialization method.

Checking case topology... 
-This case has both inlets & outlets 
-Pressure information is not available at the boundaries.
 Case will be initialized with constant pressure

	iter		scalar-0

	1		0.000000e+00
	2		0.000000e+00
	3		0.000000e+00
	4		0.000000e+00
	5		0.000000e+00
	6		0.000000e+00
	7		0.000000e+00
	8		0.000000e+00
	9		0.000000e+00
	10		0.000000e+00

Hybrid initialization is done.
<aaslistener> 

  iter  continuity  x-velocity  y-velocity  z-velocity      energy           k     epsilon     time/iter
        Negative k in 15956 cells after linear solve.
        All neighbors negative on 86 cells.
<aaslistener> 
     1  0.0000e+00  0.0000e+00  0.0000e+00  0.0000e+00  4.7041e-05  0.0000e+00  0.0000e+00  0:33:18  999

 Reversed flow on 86 faces (53.7% area) of pressure-outlet 8.
<aaslistener> 
     2  0.0000e+00  0.0000e+00  0.0000e+00  0.0000e+00  2.6239e-04  0.0000e+00  0.0000e+00  0:33:16  998

 Reversed flow on 86 faces (53.7% area) of pressure-outlet 8.
<aaslistener> 
     3  0.0000e+00  0.0000e+00  0.0000e+00  0.0000e+00  7.9232e-05  0.0000e+00  0.0000e+00  0:33:14  997

 Reversed flow on 89 faces (55.6% area) of pressure-outlet 8.
<aaslistener> 
     4  0.0000e+00  0.0000e+00  0.0000e+00  0.0000e+00  2.4528e-05  0.0000e+00  0.0000e+00  0:29:53  996

 Reversed flow on 105 faces (65.6% area) of pressure-outlet 8.
<aaslistener> 
     5  0.0000e+00  0.0000e+00  0.0000e+00  0.0000e+00  7.6378e-06  0.0000e+00  0.0000e+00  0:27:12  995

 Reversed flow on 83 faces (51.9% area) of pressure-outlet 8.
<aaslistener> 
     6  3.5133e-01  3.8150e-02  7.3479e-03  7.3002e-03  2.5676e-06  3.8577e-02  1.6760e-02  0:25:03  994

 Reversed flow on 60 faces (37.5% area) of pressure-outlet 8.
<aaslistener> 
     7  2.4972e-01  5.5552e-02  1.2764e-02  8.0889e-03  8.8351e-07  3.7218e-02  1.1716e-02  0:26:38  993

 Reversed flow on 100 faces (62.5% area) of pressure-outlet 8.
<aaslistener> 
     8  1.7862e-01  1.7008e-01  4.1135e-02  1.6810e-02  3.3376e-07  3.5958e-02  8.7805e-03  0:27:54  992

 Reversed flow on 101 faces (63.1% area) of pressure-outlet 8.
<aaslistener> 
     9  1.2578e-01  5.3986e-02  2.1800e-02  6.8728e-03  1.2988e-07  3.4315e-02  7.0682e-03  0:25:36  991

 Reversed flow on 105 faces (65.6% area) of pressure-outlet 8.
<aaslistener> 
    10  8.3689e-02  4.0674e-02  1.7218e-02  5.1592e-03  5.1670e-08  3.1700e-02  5.7895e-03  0:23:46  990

 Reversed flow on 106 faces (66.3% area) of pressure-outlet 8.
<aaslistener> 
    11  5.5719e-02  4.3882e-02  1.8665e-02  5.6819e-03  1.7701e-08  2.7781e-02  5.4359e-03  0:25:35  989

 Reversed flow on 106 faces (66.3% area) of pressure-outlet 8.

  iter  continuity  x-velocity  y-velocity  z-velocity      energy           k     epsilon     time/iter
<aaslistener> 
    12  3.7485e-02  4.8423e-02  2.1821e-02  6.1028e-03  5.6948e-09  2.0940e-02  5.2185e-03  0:23:44  988

 Reversed flow on 106 faces (66.3% area) of pressure-outlet 8.
<aaslistener> 
    13  2.5455e-02  4.9237e-02  2.1834e-02  5.8659e-03  1.7790e-09  1.1621e-02  5.0279e-03  0:25:33  987

 Reversed flow on 106 faces (66.3% area) of pressure-outlet 8.
<aaslistener> 
    14  1.7452e-02  4.7312e-02  2.0029e-02  5.1657e-03  1.1844e-09  4.7203e-03  4.8511e-03  0:23:42  986

 Reversed flow on 106 faces (66.3% area) of pressure-outlet 8.
<aaslistener> 
    15  1.1971e-02  4.3581e-02  1.7672e-02  4.4556e-03  8.5204e-10  2.0198e-03  4.6877e-03  0:25:31  985

 Reversed flow on 106 faces (66.3% area) of pressure-outlet 8.
<aaslistener> 
    16  8.2239e-03  3.9887e-02  1.5937e-02  4.1177e-03  1.0393e-09  8.3180e-04  4.4656e-03  0:23:40  984

 Reversed flow on 106 faces (66.3% area) of pressure-outlet 8.
<aaslistener> 
    17  5.7227e-03  3.6716e-02  1.5324e-02  3.8549e-03  3.3464e-10  3.1770e-04  4.1828e-03  0:25:28  983

 Reversed flow on 107 faces (66.9% area) of pressure-outlet 8.
<aaslistener> 
    18  3.9243e-03  3.4112e-02  1.3605e-02  3.2472e-03  1.5728e-10  1.1537e-04  3.8593e-03  0:23:38  982

 Reversed flow on 88 faces (55.0% area) of pressure-outlet 8.
<aaslistener> 
    19  2.7016e-03  3.4523e-02  1.1900e-02  2.8740e-03  1.7737e-10  4.1231e-05  3.4805e-03  0:22:09  981

 Reversed flow on 81 faces (50.6% area) of pressure-outlet 8.
<aaslistener> 
    20  1.9122e-03  4.0694e-02  1.4742e-02  3.1428e-03  1.3825e-08  1.4434e-05  3.2942e-03  0:24:14  980

 Reversed flow on 90 faces (56.2% area) of pressure-outlet 8.
<aaslistener> 
    21  1.3985e-03  3.7930e-02  1.6394e-02  3.0405e-03  4.0165e-09  5.5399e-06  3.2018e-03  0:22:38  979

 Reversed flow on 89 faces (55.6% area) of pressure-outlet 8.
<aaslistener> 
    22  1.0907e-03  1.7398e-02  9.2549e-03  3.6306e-03  1.2600e-09  3.4320e-06  3.2754e-03  0:24:37  978

 Reversed flow on 89 faces (55.6% area) of pressure-outlet 8.

  iter  continuity  x-velocity  y-velocity  z-velocity      energy           k     epsilon     time/iter
<aaslistener> 
    23  7.1558e-04  1.2200e-02  6.0227e-03  2.1206e-03  1.1053e-09  2.7550e-06  3.3343e-03  0:22:55  977

 Reversed flow on 80 faces (50.0% area) of pressure-outlet 8.
<aaslistener> 
    24  4.6729e-04  1.0919e-02  4.5387e-03  1.3556e-03  1.0964e-09  2.2280e-06  3.3616e-03  0:21:34  976

 Reversed flow on 80 faces (50.0% area) of pressure-outlet 8.
<aaslistener> 
    25  3.4548e-04  9.1907e-03  3.8577e-03  1.3030e-03  1.0419e-09  1.7965e-06  3.3752e-03  0:20:29  975

 Reversed flow on 80 faces (50.0% area) of pressure-outlet 8.
<aaslistener> 
    26  2.4618e-04  6.6734e-03  3.1670e-03  1.1686e-03  1.0602e-09  1.4487e-06  3.4042e-03  0:19:37  974

 Reversed flow on 80 faces (50.0% area) of pressure-outlet 8.
<aaslistener> 
    27  8.6399e-04  1.2817e-02  1.7102e-02  9.3674e-03  1.1677e-09  1.1558e-06  3.4880e-03  0:18:56  973

 Reversed flow on 80 faces (50.0% area) of pressure-outlet 8.
<aaslistener> 
    28  1.2320e-03  1.8797e-02  9.4383e-03  1.6421e-02  1.2480e-09  9.3569e-07  3.7311e-03  0:18:22  972

 Reversed flow on 80 faces (50.0% area) of pressure-outlet 8.
<aaslistener> 
    29  1.9357e-03  1.8888e-02  2.2220e-02  1.7017e-02  1.2588e-09  7.5322e-07  4.3180e-03  0:21:09  971
