
              Welcome to ANSYS Fluent 2020 R2

              Copyright 1987-2020 ANSYS, Inc. All Rights Reserved.
              Unauthorized use, distribution or duplication is prohibited.
              This product is subject to U.S. laws governing export and re-export.
              For full Legal Notice, see documentation.

Build Time: May 29 2020 07:22:43 EDT  Build Id: 10176  
 

*********************************************
Info: Your license enables 4-way parallel execution.
For faster simulations, please start the application with the appropriate parallel options.
*********************************************

Host spawning Node 0 on machine "wenzheshang" (win64).

-------------------------------------------------------------------------------
ID    Hostname     Core  O.S.         PID    Vendor                     
-------------------------------------------------------------------------------
n0    wenzheshang  1/12  Windows-x64  19252  Intel(R) Core(TM) i7-8750H 
host  wenzheshang        Windows-x64  2868   Intel(R) Core(TM) i7-8750H 

MPI Option Selected: intel
-------------------------------------------------------------------------------

Cleanup script file is f:\\Thinking\\program\\BELab1.0\\Workdata\\Fluent_Python\\2023-02-17_20-44\\cleanup-fluent-wenzheshang-2868.bat

Opening wrapper library "F:\\ANASYS\\ANSYS Inc\\v202\\fluent/../commonfiles/AAS/bin/winx64/COWrapper.dll"...

Done.
Loading "F:/ANASYS/ANSYS Inc/v202/fluent/../commonfiles/AAS/bin/winx64/cowrapper.scm"
Done.
(define (aaslistener-func iter time-step) (display "<aaslistener> 
") '() )aaslistener-func
(define (aaslistener-func-freq) 1)aaslistener-func-freq
(register-solution-monitor 'aaslistener-func aaslistener-func #f aaslistener-func-freq)monitor-lambdas
(rpsetvar 'co-simulation/ior_ICoFluentUnit "IOR:010000002000000049444c3a4141535f434f5242412f49436f466c75656e74556e69743a312e3000020000000000000070000000010102000f0000003137322e32332e3139342e3138350000e5c100001b00000014010f00525354bd76ef63ca9801000100000001000000020000000002000000000000000800000001000000004f41540100000018000000010000000100010001000000010001050901010000000000000000006c000000010102000b0000003137322e31372e302e310031e5c100001b00000014010f00525354bd76ef63ca9801000100000001000000020000000202000000000000000800000001000000004f41540100000018000000010000000100010001000000010001050901010000000000")co-simulation/ior_icofluentunit
(rp-var-define 'co-simulation/ior_ExceptionHolder "IOR:010000003000000049444c3a4141535f434f5242412f466c75656e742f49466c75656e74457863657074696f6e486f6c6465723a312e3000020000000000000070000000010102000f0000003137322e32332e3139342e3138350000e3c100001b00000014010f00525354bd76ef63e29401000000000001000000010000000002000000000000000800000001014f50004f4154010000001800000001014f500100010001000000010001050901010000000000000000006c000000010102000b0000003137322e31372e302e310031e3c100001b00000014010f00525354bd76ef63e29401000000000001000000010000000102000000000000000800000001014f50004f4154010000001800000001014f500100010001000000010001050901010000000000" 'string #f)co-simulation/ior_exceptionholder
(rpsetvar 'co-simulation/ior_ExceptionHolder "IOR:010000003000000049444c3a4141535f434f5242412f466c75656e742f49466c75656e74457863657074696f6e486f6c6465723a312e3000020000000000000070000000010102000f0000003137322e32332e3139342e3138350000e3c100001b00000014010f00525354bd76ef63e29401000000000001000000010000000002000000000000000800000001014f50004f4154010000001800000001014f500100010001000000010001050901010000000000000000006c000000010102000b0000003137322e31372e302e310031e3c100001b00000014010f00525354bd76ef63e29401000000000001000000010000000102000000000000000800000001014f50004f4154010000001800000001014f500100010001000000010001050901010000000000")co-simulation/ior_exceptionholder

> 
Reading "F:/Thinking/mesh/vadilation/roomesh.msh"...

Buffering for file scan...

   59319 nodes, binary.
    9602 nodes, binary.
  187200 quadrilateral interior faces, zone  1, binary.
    1600 quadrilateral wall faces, zone  5, binary.
    1600 quadrilateral wall faces, zone  6, binary.
     160 quadrilateral velocity-inlet faces, zone  7, binary.
     160 quadrilateral pressure-outlet faces, zone  8, binary.
    1600 quadrilateral wall faces, zone  9, binary.
    1600 quadrilateral wall faces, zone 10, binary.
    1440 quadrilateral wall faces, zone 11, binary.
    1440 quadrilateral wall faces, zone 12, binary.
   64000 hexahedral cells, zone  4, binary.

Building...
     mesh
     materials,
     interface,
     domains,
     zones,
	wall-front
	wall-back
	wall-left
	wall-right
	outlet
	inlet
	floor
	ceiling
	cell-fuild
	interior-cell-fuild
     parallel,
Done.

Preparing mesh for display...
Done.
/define/model viscous ke-rng yes/define/model energy yes no no no no/define/operating-conditions gravity yes 0 9.8/define/boundary/wallwall-front invalid command [wallwall-front]
0 no 0 no yes temperature no 283.15/define/model viscous ke-rng yes/define/model energy yes no no no no/define/operating-conditions gravity yes 0 9.8/define/boundary/wallwall-back invalid command [wallwall-back]
0 no 0 no yes temperature no 283.15/define/model viscous ke-rng yes/define/model energy yes no no no no/define/operating-conditions gravity yes 0 9.8/define/boundary/wallwall-left invalid command [wallwall-left]
0 no 0 no yes temperature no 283.15/define/model viscous ke-rng yes/define/model energy yes no no no no/define/operating-conditions gravity yes 0 9.8/define/boundary/wallwall-right invalid command [wallwall-right]
0 no 0 no yes temperature no 283.15/define/model viscous ke-rng yes/define/model energy yes no no no no/define/operating-conditions gravity yes 0 9.8/define/model viscous ke-rng yes/define/model energy yes no no no no/define/operating-conditions gravity yes 0 9.8/define/model viscous ke-rng yes/define/model energy yes no no no no/define/operating-conditions gravity yes 0 9.8/define/model viscous ke-rng yes/define/model energy yes no no no no/define/operating-conditions gravity yes 0 9.8/define/boundary/outflowoutletinvalid command [outflowoutlet]
/solve/initialize/compute-defaults/all-zonessolve iterate 1000
Initialize using the hybrid initialization method.

Checking case topology... 
-This case has both inlets & outlets 
-Pressure information is not available at the boundaries.
 Case will be initialized with constant pressure

	iter		scalar-0

	1		0.000000e+00
	2		0.000000e+00
	3		0.000000e+00
	4		0.000000e+00
	5		0.000000e+00
	6		0.000000e+00
	7		0.000000e+00
	8		0.000000e+00
	9		0.000000e+00
	10		0.000000e+00

Hybrid initialization is done.
<aaslistener> 

  iter  continuity  x-velocity  y-velocity  z-velocity      energy           k     epsilon     time/iter
        Negative k in 15956 cells after linear solve.
        All neighbors negative on 86 cells.
<aaslistener> 
!    1 solution is converged
     1  0.0000e+00  0.0000e+00  0.0000e+00  0.0000e+00  0.0000e+00  0.0000e+00  0.0000e+00  0:49:57  999
/define/model viscous ke-rng yes/define/model energy yes no no no no/define/operating-conditions gravity yes 0 9.8/define/boundary/outflowoutletinvalid command [outflowoutlet]
/solve/initialize/compute-defaults/all-zonessolve iterate 1000<aaslistener> 

  iter  continuity  x-velocity  y-velocity  z-velocity      energy           k     epsilon     time/iter
<aaslistener> 
!    1 solution is converged
     1  0.0000e+00  0.0000e+00  0.0000e+00  0.0000e+00  0.0000e+00  0.0000e+00  0.0000e+00  0:50:00 1000

 Reversed flow on 86 faces (53.7% area) of pressure-outlet 8.
<aaslistener> 
!    2 solution is converged
     2  0.0000e+00  0.0000e+00  0.0000e+00  0.0000e+00  0.0000e+00  0.0000e+00  0.0000e+00  0:46:37  999
/define/model viscous ke-rng yes/define/model energy yes no no no no/define/operating-conditions gravity yes 0 9.8/define/boundary/outflowoutletinvalid command [outflowoutlet]
/solve/initialize/compute-defaults/all-zonessolve iterate 1000<aaslistener> 

  iter  continuity  x-velocity  y-velocity  z-velocity      energy           k     epsilon     time/iter
<aaslistener> 
!    2 solution is converged
     2  0.0000e+00  0.0000e+00  0.0000e+00  0.0000e+00  0.0000e+00  0.0000e+00  0.0000e+00  0:46:40 1000

 Reversed flow on 86 faces (53.7% area) of pressure-outlet 8.
<aaslistener> 
!    3 solution is converged
     3  0.0000e+00  0.0000e+00  0.0000e+00  0.0000e+00  0.0000e+00  0.0000e+00  0.0000e+00  0:47:17  999
/define/model viscous ke-rng yes/define/model energy yes no no no no/define/operating-conditions gravity yes 0 9.8/define/boundary/outflowoutletinvalid command [outflowoutlet]
/solve/initialize/compute-defaults/all-zonessolve iterate 1000<aaslistener> 

  iter  continuity  x-velocity  y-velocity  z-velocity      energy           k     epsilon     time/iter
<aaslistener> 
!    3 solution is converged
     3  0.0000e+00  0.0000e+00  0.0000e+00  0.0000e+00  0.0000e+00  0.0000e+00  0.0000e+00  0:47:20 1000

 Reversed flow on 89 faces (55.6% area) of pressure-outlet 8.
<aaslistener> 
!    4 solution is converged
     4  0.0000e+00  0.0000e+00  0.0000e+00  0.0000e+00  0.0000e+00  0.0000e+00  0.0000e+00  0:44:29  999
/define/model viscous ke-rng yes/define/model energy yes no no no no/define/operating-conditions gravity yes 0 9.8/define/boundary/outflowoutletinvalid command [outflowoutlet]
/solve/initialize/compute-defaults/all-zonessolve iterate 1000<aaslistener> 

  iter  continuity  x-velocity  y-velocity  z-velocity      energy           k     epsilon     time/iter
<aaslistener> 
!    4 solution is converged
     4  0.0000e+00  0.0000e+00  0.0000e+00  0.0000e+00  0.0000e+00  0.0000e+00  0.0000e+00  0:44:32 1000

 Reversed flow on 105 faces (65.6% area) of pressure-outlet 8.
<aaslistener> 
!    5 solution is converged
     5  0.0000e+00  0.0000e+00  0.0000e+00  0.0000e+00  0.0000e+00  0.0000e+00  0.0000e+00  0:42:15  999
/define/model viscous ke-rng yes/define/model energy yes no no no no/define/operating-conditions gravity yes 0 9.8/define/boundary/outflowoutletinvalid command [outflowoutlet]
/solve/initialize/compute-defaults/all-zonessolve iterate 1000<aaslistener> 

  iter  continuity  x-velocity  y-velocity  z-velocity      energy           k     epsilon     time/iter
<aaslistener> 
!    5 solution is converged
     5  0.0000e+00  0.0000e+00  0.0000e+00  0.0000e+00  0.0000e+00  0.0000e+00  0.0000e+00  0:42:18 1000

 Reversed flow on 83 faces (51.9% area) of pressure-outlet 8.
<aaslistener> 
     6  3.5133e-01  3.8150e-02  7.3479e-03  7.3002e-03  1.4157e-16  3.8577e-02  1.6760e-02  0:40:28  999

 Reversed flow on 60 faces (37.5% area) of pressure-outlet 8.
<aaslistener> 
     7  2.4972e-01  5.5552e-02  1.2764e-02  8.0889e-03  1.4268e-16  3.7218e-02  1.1716e-02  0:42:19  998

 Reversed flow on 100 faces (62.5% area) of pressure-outlet 8.
<aaslistener> 
     8  1.7862e-01  1.7008e-01  4.1135e-02  1.6810e-02  1.4198e-16  3.5958e-02  8.7805e-03  0:43:47  997

 Reversed flow on 101 faces (63.1% area) of pressure-outlet 8.
<aaslistener> 
     9  1.2578e-01  5.3986e-02  2.1800e-02  6.8728e-03  1.4294e-16  3.4315e-02  7.0682e-03  0:41:38  996

 Reversed flow on 105 faces (65.6% area) of pressure-outlet 8.
<aaslistener> 
    10  8.3689e-02  4.0674e-02  1.7218e-02  5.1592e-03  1.4165e-16  3.1700e-02  5.7895e-03  0:43:14  995

 Reversed flow on 106 faces (66.3% area) of pressure-outlet 8.
<aaslistener> 
    11  5.5719e-02  4.3882e-02  1.8665e-02  5.6819e-03  1.4474e-16  2.7781e-02  5.4359e-03  0:41:10  994

 Reversed flow on 106 faces (66.3% area) of pressure-outlet 8.
<aaslistener> 
    12  3.7485e-02  4.8423e-02  2.1821e-02  6.1028e-03  1.4191e-16  2.0940e-02  5.2185e-03  0:39:31  993

 Reversed flow on 106 faces (66.3% area) of pressure-outlet 8.
<aaslistener> 
    13  2.5455e-02  4.9237e-02  2.1834e-02  5.8659e-03  1.4202e-16  1.1621e-02  5.0279e-03  0:41:30  992

 Reversed flow on 106 faces (66.3% area) of pressure-outlet 8.
<aaslistener> 
    14  1.7452e-02  4.7312e-02  2.0029e-02  5.1657e-03  1.4167e-16  4.7203e-03  4.8511e-03  0:39:47  991

 Reversed flow on 106 faces (66.3% area) of pressure-outlet 8.
<aaslistener> 
    15  1.1971e-02  4.3581e-02  1.7672e-02  4.4556e-03  1.4474e-16  2.0198e-03  4.6877e-03  0:38:23  990

 Reversed flow on 106 faces (66.3% area) of pressure-outlet 8.

  iter  continuity  x-velocity  y-velocity  z-velocity      energy           k     epsilon     time/iter
<aaslistener> 
    16  8.2239e-03  3.9887e-02  1.5937e-02  4.1177e-03  1.4245e-16  8.3180e-04  4.4656e-03  0:37:17  989

 Reversed flow on 106 faces (66.3% area) of pressure-outlet 8.
<aaslistener> 
    17  5.7227e-03  3.6716e-02  1.5324e-02  3.8549e-03  1.4140e-16  3.1770e-04  4.1828e-03  0:39:40  988

 Reversed flow on 107 faces (66.9% area) of pressure-outlet 8.
<aaslistener> 
    18  3.9243e-03  3.4112e-02  1.3605e-02  3.2472e-03  1.4208e-16  1.1537e-04  3.8593e-03  0:38:17  987

 Reversed flow on 88 faces (55.0% area) of pressure-outlet 8.
<aaslistener> 
    19  2.7016e-03  3.4523e-02  1.1900e-02  2.8740e-03  1.4245e-16  4.1231e-05  3.4805e-03  0:37:10  986

 Reversed flow on 81 faces (50.6% area) of pressure-outlet 8.
<aaslistener> 
    20  1.9122e-03  4.0694e-02  1.4742e-02  3.1428e-03  1.4200e-16  1.4434e-05  3.2942e-03  0:39:33  985

 Reversed flow on 90 faces (56.2% area) of pressure-outlet 8.
<aaslistener> 
    21  1.3985e-03  3.7930e-02  1.6394e-02  3.0405e-03  1.4302e-16  5.5399e-06  3.2018e-03  0:38:10  984

 Reversed flow on 89 faces (55.6% area) of pressure-outlet 8.
<aaslistener> 
    22  1.0907e-03  1.7398e-02  9.2549e-03  3.6306e-03  1.4315e-16  3.4320e-06  3.2754e-03  0:37:04  983

 Reversed flow on 89 faces (55.6% area) of pressure-outlet 8.
<aaslistener> 
    23  7.1558e-04  1.2200e-02  6.0227e-03  2.1206e-03  1.4189e-16  2.7550e-06  3.3343e-03  0:36:10  982

 Reversed flow on 80 faces (50.0% area) of pressure-outlet 8.
<aaslistener> 
    24  4.6729e-04  1.0919e-02  4.5387e-03  1.3556e-03  1.4510e-16  2.2280e-06  3.3616e-03  0:35:27  981

 Reversed flow on 80 faces (50.0% area) of pressure-outlet 8.
<aaslistener> 
    25  3.4548e-04  9.1907e-03  3.8577e-03  1.3030e-03  1.4317e-16  1.7965e-06  3.3752e-03  0:34:51  980

 Reversed flow on 80 faces (50.0% area) of pressure-outlet 8.
<aaslistener> 
    26  2.4618e-04  6.6734e-03  3.1670e-03  1.1686e-03  1.4280e-16  1.4487e-06  3.4042e-03  0:34:23  979

 Reversed flow on 80 faces (50.0% area) of pressure-outlet 8.

  iter  continuity  x-velocity  y-velocity  z-velocity      energy           k     epsilon     time/iter
<aaslistener> 
    27  8.6399e-04  1.2817e-02  1.7102e-02  9.3674e-03  1.4226e-16  1.1558e-06  3.4880e-03  0:34:00  978

 Reversed flow on 80 faces (50.0% area) of pressure-outlet 8.
<aaslistener> 
    28  1.2320e-03  1.8797e-02  9.4383e-03  1.6421e-02  1.4059e-16  9.3569e-07  3.7311e-03  0:33:41  977

 Reversed flow on 80 faces (50.0% area) of pressure-outlet 8.
<aaslistener> 
    29  1.9357e-03  1.8888e-02  2.2220e-02  1.7017e-02  1.4110e-16  7.5322e-07  4.3180e-03  0:36:41  976

 Reversed flow on 80 faces (50.0% area) of pressure-outlet 8.
<aaslistener> 
    30  1.3617e-03  7.8413e-03  9.0540e-03  7.0618e-03  1.4241e-16  6.4360e-07  5.6240e-03  0:35:49  975

 Reversed flow on 44 faces (27.5% area) of pressure-outlet 8.
<aaslistener> 
    31  3.9119e-03  3.4311e-02  3.3676e-02  2.8438e-02  1.4557e-16  5.5331e-07  8.1552e-03  0:35:07  974

 Reversed flow on 66 faces (41.3% area) of pressure-outlet 8.
<aaslistener> 
    32  2.9547e-03  1.0611e-02  9.7736e-03  1.1126e-02  1.4223e-16  4.2942e-07  1.1269e-02  0:34:33  973

 Reversed flow on 80 faces (50.0% area) of pressure-outlet 8.
<aaslistener> 
    33  1.4943e-03  8.6734e-03  7.9268e-03  8.9137e-03  1.4247e-16  3.5378e-07  1.4058e-02  0:34:06  972

 Reversed flow on 80 faces (50.0% area) of pressure-outlet 8.
<aaslistener> 
    34  7.9916e-04  6.7240e-03  6.0679e-03  7.0318e-03  1.4245e-16  2.9132e-07  1.6260e-02  0:33:43  971

 Reversed flow on 80 faces (50.0% area) of pressure-outlet 8.
<aaslistener> 
    35  4.8366e-04  5.4735e-03  4.7702e-03  5.3935e-03  1.4355e-16  2.4290e-07  1.7416e-02  0:33:25  970

 Reversed flow on 80 faces (50.0% area) of pressure-outlet 8.
<aaslistener> 
    36  3.0035e-04  4.1139e-03  3.3902e-03  3.6777e-03  1.4176e-16  2.6799e-07  1.7684e-02  0:36:24  969

 Reversed flow on 98 faces (61.2% area) of pressure-outlet 8.
<aaslistener> 
    37  2.4943e-03  2.4222e-02  1.7141e-02  2.2544e-02  1.4289e-16  2.7363e-07  1.7620e-02  0:35:32  968

 Reversed flow on 98 faces (61.2% area) of pressure-outlet 8.

  iter  continuity  x-velocity  y-velocity  z-velocity      energy           k     epsilon     time/iter
<aaslistener> 
    38  3.2273e-03  9.8205e-03  1.1744e-02  9.4268e-03  1.4184e-16  2.0314e-07  1.7430e-02  0:34:51  967

 Reversed flow on 80 faces (50.0% area) of pressure-outlet 8.
<aaslistener> 
    39  2.9002e-03  7.3978e-03  9.4137e-03  7.0844e-03  1.4349e-16  1.7982e-06  1.3029e-02  0:34:17  966
<aaslistener> 
    40  1.6497e-02  2.6031e-02  1.7938e-02  2.5038e-02  1.4301e-16  1.7307e-06  1.2407e-02  0:37:03  965

 Reversed flow on 56 faces (35.0% area) of pressure-outlet 8.
<aaslistener> 
    41  1.1851e-02  2.3650e-02  1.6394e-02  2.0488e-02  1.4165e-16  8.2546e-07  1.2540e-02  0:36:02  964

 Reversed flow on 84 faces (52.5% area) of pressure-outlet 8.
<aaslistener> 
    42  6.3839e-03  1.8848e-02  1.3635e-02  1.6304e-02  1.4076e-16  4.8213e-07  1.3098e-02  0:35:13  963

 Reversed flow on 84 faces (52.5% area) of pressure-outlet 8.
<aaslistener> 
    43  3.4768e-03  1.5606e-02  1.1693e-02  1.3110e-02  1.4338e-16  3.0661e-07  1.3788e-02  0:34:34  962

 Reversed flow on 74 faces (46.3% area) of pressure-outlet 8.
<aaslistener> 
    44  1.9291e-03  1.6080e-02  1.0438e-02  1.0934e-02  1.4420e-16  2.7122e-07  1.4461e-02  0:34:02  961

 Reversed flow on 79 faces (49.4% area) of pressure-outlet 8.
<aaslistener> 
    45  1.7144e-03  1.5857e-02  1.1973e-02  8.6036e-03  1.4294e-16  1.0976e-06  1.2071e-02  0:36:48  960
<aaslistener> 
    46  1.8176e-02  3.3464e-02  3.0094e-02  2.1925e-02  1.4314e-16  7.9534e-07  1.2509e-02  0:35:48  959

 Reversed flow on 69 faces (43.1% area) of pressure-outlet 8.
<aaslistener> 
    47  6.7853e-03  2.8691e-02  2.7781e-02  1.1386e-02  1.4599e-16  3.3677e-07  1.3303e-02  0:31:48  958

 Reversed flow on 80 faces (50.0% area) of pressure-outlet 8.
<aaslistener> 
    48  3.5632e-03  2.2632e-02  2.4699e-02  9.7940e-03  1.4310e-16  2.7743e-07  1.3839e-02  0:34:59  957

 Reversed flow on 84 faces (52.5% area) of pressure-outlet 8.

  iter  continuity  x-velocity  y-velocity  z-velocity      energy           k     epsilon     time/iter
<aaslistener> 
    49  3.0962e-03  9.5811e-03  9.8163e-03  8.6080e-03  1.4297e-16  2.3795e-07  1.4456e-02  0:34:20  956

 Reversed flow on 87 faces (54.4% area) of pressure-outlet 8.
<aaslistener> 
    50  1.5278e-03  7.9006e-03  7.3305e-03  6.1473e-03  1.4339e-16  2.2244e-07  1.5058e-02  0:33:48  955

 Reversed flow on 80 faces (50.0% area) of pressure-outlet 8.
<aaslistener> 
    51  8.6019e-04  8.5142e-03  6.6608e-03  5.2975e-03  1.4300e-16  2.0343e-07  1.5601e-02  0:33:22  954

 Reversed flow on 80 faces (50.0% area) of pressure-outlet 8.
<aaslistener> 
    52  5.7054e-04  7.0720e-03  5.4937e-03  4.3964e-03  1.4299e-16  1.8490e-07  1.6079e-02  0:33:01  953

 Reversed flow on 80 faces (50.0% area) of pressure-outlet 8.
<aaslistener> 
    53  3.6900e-04  5.5406e-03  4.2123e-03  3.1863e-03  1.4278e-16  1.6777e-07  1.6494e-02  0:32:44  952

 Reversed flow on 80 faces (50.0% area) of pressure-outlet 8.
<aaslistener> 
    54  3.6494e-04  7.7319e-03  5.0769e-03  3.6345e-03  1.4315e-16  1.6034e-07  1.6847e-02  0:35:40  951

 Reversed flow on 80 faces (50.0% area) of pressure-outlet 8.
<aaslistener> 
    55  9.1663e-04  8.8293e-03  6.1514e-03  6.6586e-03  1.4257e-16  1.5554e-07  1.7111e-02  0:34:51  950

 Reversed flow on 80 faces (50.0% area) of pressure-outlet 8.
<aaslistener> 
    56  1.2496e-03  8.1423e-03  5.6982e-03  6.4568e-03  1.4081e-16  2.2001e-07  1.7083e-02  0:34:10  949

 Reversed flow on 108 faces (67.5% area) of pressure-outlet 8.
<aaslistener> 
    57  3.0018e-03  1.8944e-02  1.3921e-02  1.7375e-02  1.4343e-16  1.5013e-07  1.7263e-02  0:33:38  948

 Reversed flow on 88 faces (55.0% area) of pressure-outlet 8.
<aaslistener> 
    58  1.3227e-03  1.2564e-02  9.5903e-03  1.1630e-02  1.4519e-16  1.5742e-07  1.7264e-02  0:33:11  947

 Reversed flow on 87 faces (54.4% area) of pressure-outlet 8.
<aaslistener> 
    59  2.6223e-03  9.5660e-03  1.1315e-02  8.2158e-03  1.4270e-16  1.0335e-07  1.7280e-02  0:32:50  946

 Reversed flow on 80 faces (50.0% area) of pressure-outlet 8.

  iter  continuity  x-velocity  y-velocity  z-velocity      energy           k     epsilon     time/iter
<aaslistener> 
    60  2.1502e-03  7.5719e-03  9.4515e-03  6.6201e-03  1.4388e-16  5.8048e-07  1.6372e-02  0:32:32  945

 Reversed flow on 22 faces (13.7% area) of pressure-outlet 8.
<aaslistener> 
    61  8.8098e-03  2.4109e-02  1.6760e-02  2.3266e-02  1.4206e-16  4.3646e-07  1.6343e-02  0:32:18  944

 Reversed flow on 68 faces (42.5% area) of pressure-outlet 8.
<aaslistener> 
    62  4.0635e-03  1.8810e-02  1.2573e-02  1.7007e-02  1.4285e-16  2.6902e-07  1.6646e-02  0:35:14  943

 Reversed flow on 80 faces (50.0% area) of pressure-outlet 8.
<aaslistener> 
    63  2.1495e-03  1.5169e-02  1.0762e-02  1.3537e-02  1.4136e-16  1.0599e-06  1.4059e-02  0:34:26  942

 Reversed flow on 76 faces (47.5% area) of pressure-outlet 8.
<aaslistener> 
    64  8.4329e-03  1.0760e-02  6.9031e-03  8.2283e-03  1.4300e-16  8.8247e-07  1.3765e-02  0:33:48  941

 Reversed flow on 84 faces (52.5% area) of pressure-outlet 8.
<aaslistener> 
    65  3.9933e-03  9.0113e-03  5.7806e-03  6.9298e-03  1.4212e-16  5.0630e-07  1.4186e-02  0:33:16  940

 Reversed flow on 84 faces (52.5% area) of pressure-outlet 8.
<aaslistener> 
    66  2.1070e-03  9.2436e-03  5.7955e-03  6.6235e-03  1.4202e-16  4.4710e-06  1.3825e-02  0:32:51  939
<aaslistener> 
    67  3.8692e-02  3.1341e-02  2.8053e-02  2.0760e-02  1.4208e-16  2.7104e-06  4.1997e-03  0:35:38  938

 Reversed flow on 78 faces (48.8% area) of pressure-outlet 8.
<aaslistener> 
    68  1.8352e-02  2.8285e-02  2.5036e-02  1.7841e-02  1.4364e-16  1.4604e-06  1.8492e-03  0:34:43  937

 Reversed flow on 89 faces (55.6% area) of pressure-outlet 8.
<aaslistener> 
    69  9.5514e-03  2.3722e-02  2.4428e-02  1.6473e-02  1.4274e-16  8.6514e-07  3.4283e-03  0:33:59  936

 Reversed flow on 92 faces (57.5% area) of pressure-outlet 8.
<aaslistener> 
    70  5.1822e-03  2.2950e-02  2.2432e-02  1.3849e-02  1.4414e-16  6.3604e-07  3.3414e-03  0:33:24  935

 Reversed flow on 83 faces (51.9% area) of pressure-outlet 8.

  iter  continuity  x-velocity  y-velocity  z-velocity      energy           k     epsilon     time/iter
<aaslistener> 
    71  5.3297e-03  1.1574e-02  1.3816e-02  6.6906e-03  1.4359e-16  5.3716e-07  3.4413e-03  0:32:55  934

 Reversed flow on 86 faces (53.8% area) of pressure-outlet 8.
<aaslistener> 
    72  2.7706e-03  9.2470e-03  1.0992e-02  5.1194e-03  1.4055e-16  4.9017e-07  3.4197e-03  0:32:31  933

 Reversed flow on 80 faces (50.0% area) of pressure-outlet 8.
<aaslistener> 
    73  1.4949e-03  9.7913e-03  1.0328e-02  5.0102e-03  1.4519e-16  4.4484e-07  4.1360e-03  0:35:19  932

 Reversed flow on 80 faces (50.0% area) of pressure-outlet 8.
<aaslistener> 
    74  8.8473e-04  9.3401e-03  8.8690e-03  4.9571e-03  1.4198e-16  3.9657e-07  5.6364e-03  0:34:25  931

 Reversed flow on 80 faces (50.0% area) of pressure-outlet 8.
<aaslistener> 
    75  7.2252e-04  7.4882e-03  7.3721e-03  3.3565e-03  1.4211e-16  3.5319e-07  7.1647e-03  0:33:43  930

 Reversed flow on 80 faces (50.0% area) of pressure-outlet 8.
<aaslistener> 
    76  5.6366e-04  6.4408e-03  6.3945e-03  2.7568e-03  1.4358e-16  3.1723e-07  8.5389e-03  0:36:14  929

 Reversed flow on 80 faces (50.0% area) of pressure-outlet 8.
<aaslistener> 
    77  3.2042e-04  4.8556e-03  4.4601e-03  1.9350e-03  1.4174e-16  2.8724e-07  9.7407e-03  0:35:08  928

 Reversed flow on 80 faces (50.0% area) of pressure-outlet 8.
<aaslistener> 
    78  1.9216e-04  3.6100e-03  2.9235e-03  1.2712e-03  1.4303e-16  2.6360e-07  1.0789e-02  0:34:16  927

 Reversed flow on 80 faces (50.0% area) of pressure-outlet 8.
<aaslistener> 
    79  1.1960e-04  2.6012e-03  1.8715e-03  7.8147e-04  1.4207e-16  2.4389e-07  1.1707e-02  0:33:33  926

 Reversed flow on 80 faces (50.0% area) of pressure-outlet 8.
<aaslistener> 
    80  7.6033e-05  1.8305e-03  1.2036e-03  4.6324e-04  1.4251e-16  2.2699e-07  1.2517e-02  0:32:59  925

 Reversed flow on 80 faces (50.0% area) of pressure-outlet 8.
<aaslistener> 
    81  5.5712e-05  1.3649e-03  9.4488e-04  3.7380e-04  1.4309e-16  2.1220e-07  1.3236e-02  0:32:31  924

 Reversed flow on 80 faces (50.0% area) of pressure-outlet 8.

  iter  continuity  x-velocity  y-velocity  z-velocity      energy           k     epsilon     time/iter
<aaslistener> 
    82  5.9579e-05  1.3461e-03  1.1710e-03  5.3237e-04  1.4365e-16  1.9827e-07  1.3877e-02  0:32:08  923

 Reversed flow on 80 faces (50.0% area) of pressure-outlet 8.
<aaslistener> 
    83  1.5356e-04  2.3754e-03  2.5037e-03  2.4055e-03  1.4226e-16  1.8574e-07  1.4453e-02  0:31:50  922

 Reversed flow on 80 faces (50.0% area) of pressure-outlet 8.
<aaslistener> 
    84  9.9199e-05  1.6987e-03  1.6778e-03  1.7495e-03  1.4120e-16  2.1879e-07  1.4818e-02  0:31:35  921

 Reversed flow on 92 faces (57.5% area) of pressure-outlet 8.
<aaslistener> 
    85  2.1889e-03  2.4940e-02  2.2052e-02  1.6404e-02  1.4402e-16  1.8103e-07  1.5243e-02  0:31:22  920

 Reversed flow on 82 faces (51.2% area) of pressure-outlet 8.
<aaslistener> 
    86  7.1823e-04  1.1417e-02  1.2295e-02  5.5350e-03  1.4281e-16  1.5572e-07  1.5647e-02  0:34:15  919

 Reversed flow on 80 faces (50.0% area) of pressure-outlet 8.
<aaslistener> 
    87  3.8904e-04  6.9376e-03  7.1845e-03  3.2730e-03  1.4304e-16  1.4077e-07  1.6024e-02  0:33:30  918

 Reversed flow on 80 faces (50.0% area) of pressure-outlet 8.
<aaslistener> 
    88  2.2569e-04  4.3162e-03  4.0796e-03  1.7479e-03  1.4355e-16  1.3122e-07  1.6376e-02  0:32:53  917

 Reversed flow on 80 faces (50.0% area) of pressure-outlet 8.
<aaslistener> 
    89  1.3476e-04  2.4686e-03  2.3020e-03  9.6420e-04  1.4098e-16  1.2593e-07  1.6702e-02  0:32:23  916

 Reversed flow on 80 faces (50.0% area) of pressure-outlet 8.
<aaslistener> 
    90  3.5752e-04  8.7489e-03  5.0358e-03  5.7118e-03  1.4191e-16  1.4707e-07  1.6906e-02  0:31:59  915

 Reversed flow on 80 faces (50.0% area) of pressure-outlet 8.
<aaslistener> 
    91  1.2309e-03  7.8647e-03  5.4676e-03  6.3591e-03  1.4374e-16  1.5052e-07  1.6975e-02  0:31:39  914

 Reversed flow on 80 faces (50.0% area) of pressure-outlet 8.
<aaslistener> 
    92  1.6677e-03  7.5448e-03  5.2951e-03  6.1555e-03  1.4275e-16  1.3463e-07  1.6939e-02  0:34:25  913

 Reversed flow on 80 faces (50.0% area) of pressure-outlet 8.

  iter  continuity  x-velocity  y-velocity  z-velocity      energy           k     epsilon     time/iter
<aaslistener> 
    93  1.8893e-03  7.3907e-03  5.1375e-03  6.0158e-03  1.4337e-16  1.1123e-07  1.6831e-02  0:33:35  912

 Reversed flow on 80 faces (50.0% area) of pressure-outlet 8.
<aaslistener> 
    94  2.0183e-03  7.3045e-03  5.0490e-03  5.9493e-03  1.4346e-16  6.0843e-07  1.5398e-02  0:32:55  911

 Reversed flow on 62 faces (38.7% area) of pressure-outlet 8.
<aaslistener> 
    95  9.5159e-03  2.4101e-02  1.2733e-02  1.7580e-02  1.4314e-16  4.2041e-05  2.4880e+00  0:35:24  910

 Reversed flow on 53 faces (33.1% area) of pressure-outlet 8.
<aaslistener> 
    96  4.9187e-02  1.1570e-02  8.1750e-03  9.9448e-03  1.4289e-16  6.0166e-06  1.4931e-02  0:34:21  909

 Reversed flow on 79 faces (49.4% area) of pressure-outlet 8.
<aaslistener> 
    97  2.2870e-02  9.5154e-03  6.4088e-03  8.2477e-03  1.4057e-16  2.0195e-06  1.7625e-02  0:33:30  908

 Reversed flow on 84 faces (52.5% area) of pressure-outlet 8.
<aaslistener> 
    98  1.2657e-02  8.6117e-03  5.8648e-03  7.6732e-03  1.4241e-16  1.8901e-06  1.5764e-02  0:32:49  907

 Reversed flow on 87 faces (54.4% area) of pressure-outlet 8.
<aaslistener> 
    99  7.9736e-03  8.7291e-03  5.8137e-03  7.3672e-03  1.4271e-16  1.6426e-06  1.1973e-02  0:32:16  906

 Reversed flow on 79 faces (49.4% area) of pressure-outlet 8.
<aaslistener> 
   100  4.8798e-03  8.6750e-03  5.7227e-03  6.9514e-03  1.4182e-16  1.3669e-06  8.7554e-03  0:31:49  905

 Reversed flow on 88 faces (55.0% area) of pressure-outlet 8.
<aaslistener> 
   101  2.9697e-03  9.1211e-03  5.8585e-03  6.6230e-03  1.4194e-16  1.2318e-06  7.1183e-03  0:31:27  904

 Reversed flow on 85 faces (53.1% area) of pressure-outlet 8.
<aaslistener> 
   102  1.7899e-03  8.9370e-03  5.8424e-03  6.2987e-03  1.4175e-16  1.1390e-06  6.2228e-03  0:31:09  903

 Reversed flow on 83 faces (51.9% area) of pressure-outlet 8.
<aaslistener> 
   103  1.0836e-03  8.2242e-03  5.3709e-03  5.5336e-03  1.4437e-16  1.0537e-06  5.6436e-03  0:33:55  902

 Reversed flow on 80 faces (50.0% area) of pressure-outlet 8.

  iter  continuity  x-velocity  y-velocity  z-velocity      energy           k     epsilon     time/iter
<aaslistener> 
   104  6.6027e-04  7.5184e-03  4.7526e-03  4.5271e-03  1.4241e-16  9.7289e-07  5.2024e-03  0:33:07  901

 Reversed flow on 80 faces (50.0% area) of pressure-outlet 8.
<aaslistener> 
   105  4.0675e-04  6.1976e-03  3.8279e-03  3.3458e-03  1.4270e-16  8.9703e-07  4.8302e-03  0:32:27  900

 Reversed flow on 80 faces (50.0% area) of pressure-outlet 8.
<aaslistener> 
   106  2.5312e-04  4.8342e-03  2.8058e-03  2.2594e-03  1.4230e-16  8.2649e-07  4.5002e-03  0:31:56  899

 Reversed flow on 80 faces (50.0% area) of pressure-outlet 8.
<aaslistener> 
   107  1.5877e-04  3.5921e-03  1.9221e-03  1.3973e-03  1.4326e-16  7.6006e-07  4.2017e-03  0:31:30  898

 Reversed flow on 80 faces (50.0% area) of pressure-outlet 8.
<aaslistener> 
   108  1.0108e-04  2.5840e-03  1.2805e-03  8.2673e-04  1.4232e-16  6.9710e-07  3.9297e-03  0:31:09  897

 Reversed flow on 80 faces (50.0% area) of pressure-outlet 8.
<aaslistener> 
   109  6.5594e-05  1.8503e-03  9.0309e-04  4.7242e-04  1.4159e-16  6.3762e-07  3.6810e-03  0:30:52  896

 Reversed flow on 80 faces (50.0% area) of pressure-outlet 8.
<aaslistener> 
   110  4.7784e-05  1.3893e-03  7.8926e-04  3.2680e-04  1.4273e-16  5.8198e-07  3.4530e-03  0:30:38  895

 Reversed flow on 80 faces (50.0% area) of pressure-outlet 8.
<aaslistener> 
   111  4.3618e-05  1.2429e-03  8.8517e-04  3.1771e-04  1.4079e-16  5.3040e-07  3.2439e-03  0:33:25  894

 Reversed flow on 80 faces (50.0% area) of pressure-outlet 8.
<aaslistener> 
   112  2.8533e-05  8.6618e-04  5.8212e-04  1.7663e-04  1.4368e-16  4.8306e-07  3.8966e-03  0:32:40  893

 Reversed flow on 80 faces (50.0% area) of pressure-outlet 8.
<aaslistener> 
   113  2.0161e-05  6.5374e-04  4.1843e-04  1.0578e-04  1.4296e-16  4.4010e-07  5.2564e-03  0:32:03  892

 Reversed flow on 80 faces (50.0% area) of pressure-outlet 8.
<aaslistener> 
   114  1.5382e-05  5.1400e-04  3.2248e-04  6.7580e-05  1.4349e-16  4.0116e-07  6.7249e-03  0:31:33  891

 Reversed flow on 80 faces (50.0% area) of pressure-outlet 8.

  iter  continuity  x-velocity  y-velocity  z-velocity      energy           k     epsilon     time/iter
<aaslistener> 
   115  2.5494e-05  6.8552e-04  5.8635e-04  2.1660e-04  1.4295e-16  3.6615e-07  8.0714e-03  0:31:09  890

 Reversed flow on 80 faces (50.0% area) of pressure-outlet 8.
<aaslistener> 
   116  1.6163e-05  4.5879e-04  3.6250e-04  1.1583e-04  1.4136e-16  3.3462e-07  9.2668e-03  0:30:49  889

 Reversed flow on 80 faces (50.0% area) of pressure-outlet 8.
<aaslistener> 
   117  1.1491e-05  3.4048e-04  2.5184e-04  6.7652e-05  1.4094e-16  3.0642e-07  1.0324e-02  0:33:30  888

 Reversed flow on 80 faces (50.0% area) of pressure-outlet 8.
<aaslistener> 
   118  8.7932e-06  2.7179e-04  1.9500e-04  4.2432e-05  1.4158e-16  2.8123e-07  1.1261e-02  0:32:41  887

 Reversed flow on 80 faces (50.0% area) of pressure-outlet 8.
<aaslistener> 
   119  7.0438e-06  2.2602e-04  1.5984e-04  2.8293e-05  1.4084e-16  2.5874e-07  1.2095e-02  0:32:02  886

 Reversed flow on 80 faces (50.0% area) of pressure-outlet 8.
<aaslistener> 
   120  5.8635e-06  1.9253e-04  1.3530e-04  1.9096e-05  1.4404e-16  2.3864e-07  1.2840e-02  0:31:29  885

 Reversed flow on 80 faces (50.0% area) of pressure-outlet 8.
<aaslistener> 
   121  5.0562e-06  1.6835e-04  1.1936e-04  1.4338e-05  1.4306e-16  2.2065e-07  1.3509e-02  0:31:03  884

 Reversed flow on 80 faces (50.0% area) of pressure-outlet 8.
<aaslistener> 
   122  9.1168e-06  2.5334e-04  1.6142e-04  1.4109e-04  1.4249e-16  2.0454e-07  1.4111e-02  0:30:42  883

 Reversed flow on 80 faces (50.0% area) of pressure-outlet 8.
<aaslistener> 
   123  5.6673e-06  1.7273e-04  1.1649e-04  6.5213e-05  1.4171e-16  1.9302e-07  1.4644e-02  0:30:25  882

 Reversed flow on 80 faces (50.0% area) of pressure-outlet 8.
        Stabilizing pressure coupled to enhance linear solver robustness.
<aaslistener> 
   124  1.9334e-04  3.9265e-03  3.6199e-03  2.8089e-03  1.4227e-16  1.7748e-07  1.5132e-02  0:33:07  881

 Reversed flow on 80 faces (50.0% area) of pressure-outlet 8.
<aaslistener> 
   125  9.0015e-05  1.8020e-03  1.6902e-03  1.2876e-03  1.4158e-16  1.6480e-07  1.5576e-02  0:32:20  880

 Reversed flow on 80 faces (50.0% area) of pressure-outlet 8.

  iter  continuity  x-velocity  y-velocity  z-velocity      energy           k     epsilon     time/iter
<aaslistener> 
   126  5.0641e-05  9.0752e-04  8.7462e-04  6.5438e-04  1.4458e-16  1.5369e-07  1.5982e-02  0:31:42  879

 Reversed flow on 80 faces (50.0% area) of pressure-outlet 8.
<aaslistener> 
   127  2.8423e-05  4.8302e-04  4.8144e-04  3.1833e-04  1.4233e-16  1.4376e-07  1.6352e-02  0:31:11  878

 Reversed flow on 80 faces (50.0% area) of pressure-outlet 8.
<aaslistener> 
   128  1.6320e-05  2.8661e-04  2.7234e-04  1.6147e-04  1.4190e-16  1.3474e-07  1.6692e-02  0:33:41  877

 Reversed flow on 80 faces (50.0% area) of pressure-outlet 8.
<aaslistener> 
   129  2.6535e-05  5.2334e-04  3.9014e-04  4.0272e-04  1.4168e-16  1.2669e-07  1.7005e-02  0:32:45  876

 Reversed flow on 80 faces (50.0% area) of pressure-outlet 8.
<aaslistener> 
   130  3.1650e-05  6.9067e-04  4.9055e-04  5.4230e-04  1.4223e-16  1.1940e-07  1.7292e-02  0:32:01  875

 Reversed flow on 80 faces (50.0% area) of pressure-outlet 8.
<aaslistener> 
   131  3.5354e-05  8.0995e-04  5.6412e-04  6.4110e-04  1.4445e-16  1.1424e-07  1.7553e-02  0:31:24  874

 Reversed flow on 80 faces (50.0% area) of pressure-outlet 8.
<aaslistener> 
   132  8.4333e-05  1.9717e-03  1.5084e-03  1.9504e-03  1.4214e-16  1.3412e-07  1.7819e-02  0:30:55  873

 Reversed flow on 70 faces (43.7% area) of pressure-outlet 8.
<aaslistener> 
   133  1.4913e-03  2.1126e-02  1.5218e-02  2.0639e-02  1.4162e-16  1.1460e-07  1.8060e-02  0:30:31  872

 Reversed flow on 80 faces (50.0% area) of pressure-outlet 8.
<aaslistener> 
   134  7.0288e-04  1.2866e-02  9.5394e-03  1.2674e-02  1.4554e-16  1.0734e-07  1.8287e-02  0:30:12  871

 Reversed flow on 80 faces (50.0% area) of pressure-outlet 8.
<aaslistener> 
   135  4.1024e-04  8.3349e-03  6.0997e-03  7.9515e-03  1.4283e-16  1.0214e-07  1.8495e-02  0:32:50  870

 Reversed flow on 80 faces (50.0% area) of pressure-outlet 8.
<aaslistener> 
   136  2.5671e-04  4.8048e-03  3.6286e-03  4.2679e-03  1.4083e-16  9.5917e-08  1.8683e-02  0:32:01  869

 Reversed flow on 80 faces (50.0% area) of pressure-outlet 8.

  iter  continuity  x-velocity  y-velocity  z-velocity      energy           k     epsilon     time/iter
<aaslistener> 
   137  1.5330e-04  2.8360e-03  2.0322e-03  2.2016e-03  1.4190e-16  9.0179e-08  1.8854e-02  0:31:23  868

 Reversed flow on 80 faces (50.0% area) of pressure-outlet 8.
<aaslistener> 
   138  9.0366e-05  1.7470e-03  1.1333e-03  1.1441e-03  1.4151e-16  8.5009e-08  1.9010e-02  0:30:51  867
