
              Welcome to ANSYS Fluent 2020 R2

              Copyright 1987-2020 ANSYS, Inc. All Rights Reserved.
              Unauthorized use, distribution or duplication is prohibited.
              This product is subject to U.S. laws governing export and re-export.
              For full Legal Notice, see documentation.

Build Time: May 29 2020 07:22:43 EDT  Build Id: 10176  
 

*********************************************
Info: Your license enables 4-way parallel execution.
For faster simulations, please start the application with the appropriate parallel options.
*********************************************

Host spawning Node 0 on machine "wenzheshang" (win64).

-------------------------------------------------------------------------------
ID    Hostname     Core  O.S.         PID    Vendor                     
-------------------------------------------------------------------------------
n0    wenzheshang  1/12  Windows-x64  10460  Intel(R) Core(TM) i7-8750H 
host  wenzheshang        Windows-x64  11600  Intel(R) Core(TM) i7-8750H 

MPI Option Selected: intel
-------------------------------------------------------------------------------

Cleanup script file is f:\\Thinking\\program\\BELab1.0\\Workdata\\Fluent_Python\\2023-02-18_15-03\\cleanup-fluent-wenzheshang-11600.bat

Opening wrapper library "F:\\ANASYS\\ANSYS Inc\\v202\\fluent/../commonfiles/AAS/bin/winx64/COWrapper.dll"...

Done.
Loading "F:/ANASYS/ANSYS Inc/v202/fluent/../commonfiles/AAS/bin/winx64/cowrapper.scm"
Done.
(define (aaslistener-func iter time-step) (display "<aaslistener> 
") '() )aaslistener-func
(define (aaslistener-func-freq) 1)aaslistener-func-freq
(register-solution-monitor 'aaslistener-func aaslistener-func #f aaslistener-func-freq)monitor-lambdas
(rpsetvar 'co-simulation/ior_ICoFluentUnit "IOR:010000002000000049444c3a4141535f434f5242412f49436f466c75656e74556e69743a312e3000020000000000000070000000010102520f0000003137322e32332e3139342e31383500006ecb00001b00000014010f005253544c78f063fee904000100000001000000020000000002000000000000000800000001000000004f41540100000018000000010000000100010001000000010001050901010000000000000000006c000000010102520b0000003137322e31372e302e3100316ecb00001b00000014010f005253544c78f063fee904000100000001000000020000000202000000000000000800000001005200004f41540100000018000000010000000100010001000000010001050901010000000000")co-simulation/ior_icofluentunit
(rp-var-define 'co-simulation/ior_ExceptionHolder "IOR:010000003000000049444c3a4141535f434f5242412f466c75656e742f49466c75656e74457863657074696f6e486f6c6465723a312e3000020000000000000070000000010102000f0000003137322e32332e3139342e31383500006ccb00001b00000014010f005253544c78f06316e604000000000001000000010000000002000000000000000800000001016adb004f4154010000001800000001016adb0100010001000000010001050901010000000000000000006c000000010102000b0000003137322e31372e302e3100316ccb00001b00000014010f005253544c78f06316e604000000000001000000010000000102000000000000000800000001016adb004f4154010000001800000001016adb0100010001000000010001050901010000000000" 'string #f)co-simulation/ior_exceptionholder
(rpsetvar 'co-simulation/ior_ExceptionHolder "IOR:010000003000000049444c3a4141535f434f5242412f466c75656e742f49466c75656e74457863657074696f6e486f6c6465723a312e3000020000000000000070000000010102000f0000003137322e32332e3139342e31383500006ccb00001b00000014010f005253544c78f06316e604000000000001000000010000000002000000000000000800000001016adb004f4154010000001800000001016adb0100010001000000010001050901010000000000000000006c000000010102000b0000003137322e31372e302e3100316ccb00001b00000014010f005253544c78f06316e604000000000001000000010000000102000000000000000800000001016adb004f4154010000001800000001016adb0100010001000000010001050901010000000000")co-simulation/ior_exceptionholder

> 
Reading "F:/Thinking/mesh/vadilation/roomesh.msh"...

Buffering for file scan...

   59319 nodes, binary.
    9602 nodes, binary.
  187200 quadrilateral interior faces, zone  1, binary.
    1600 quadrilateral wall faces, zone  5, binary.
    1600 quadrilateral wall faces, zone  6, binary.
     160 quadrilateral velocity-inlet faces, zone  7, binary.
     160 quadrilateral pressure-outlet faces, zone  8, binary.
    1600 quadrilateral wall faces, zone  9, binary.
    1600 quadrilateral wall faces, zone 10, binary.
    1440 quadrilateral wall faces, zone 11, binary.
    1440 quadrilateral wall faces, zone 12, binary.
   64000 hexahedral cells, zone  4, binary.

Building...
     mesh
     materials,
     interface,
     domains,
     zones,
	wall-front
	wall-back
	wall-left
	wall-right
	outlet
	inlet
	wall-floor
	wall-ceiling
	cell-fuild
	interior-cell-fuild
     parallel,
Done.

Preparing mesh for display...
Done.
/define/model viscous ke-rng yes/define/model energy yes no no no no/define/operating-conditions gravity yes 0 9.8/define/boundary/wall (wall-ceiling wall-floor wall-right wall-left wall-back wall-front)
wall-front 0 no 0 no yes temperature no 283.15/define/boundary/wall (wall-ceiling wall-floor wall-right wall-left wall-back wall-front)
wall-back 0 no 0 no yes temperature no 283.15/define/boundary/wall (wall-ceiling wall-floor wall-right wall-left wall-back wall-front)
wall-left 0 no 0 no yes temperature no 283.15/define/boundary/wall (wall-ceiling wall-floor wall-right wall-left wall-back wall-front)
wall-right 0 no 0 no yes temperature no 283.15/define/boundary/wall (wall-ceiling wall-floor wall-right wall-left wall-back wall-front)
wall-ceiling 0 no 0 no yes temperature no 283.15/define/boundary/wall (wall-ceiling wall-floor wall-right wall-left wall-back wall-front)
wall-floor 0 no 0 no yes temperature no 303.15/define/boundary/velocity-inlet (inlet)
inlet no no yes yes no 0.8333333457509677 no 0 no 283.15 no no yes 5 10(cx-gui-do cx-set-list-tree-selections "NavigationPane*List_Tree1" (list "Setup|Boundary Conditions|Outlet|outlet (pressure-outlet, id=8)"))
(cx-gui-do cx-set-list-tree-selections "NavigationPane*List_Tree1" (list "Setup|Boundary Conditions|Outlet|outlet (pressure-outlet, id=8)"))
(cx-gui-do cx-list-tree-right-click "NavigationPane*List_Tree1" )
(cx-gui-do cx-activate-item "MenuBar*TypeSubMenu*outflow")
/solve/initialize/compute-defaults/all-zonessolve iterate 100
Initialize using the hybrid initialization method.

Checking case topology... 
-This case has both inlets & outlets 
-Pressure information is not available at the boundaries.
 Case will be initialized with constant pressure

	iter		scalar-0

	1		1.000000e+00
	2		1.017806e-05
	3		9.829491e-07
	4		9.823473e-08
	5		9.216920e-09
	6		8.672313e-10
	7		8.151888e-11
	8		7.637623e-12
	9		8.211756e-13
	10		9.202109e-14

Hybrid initialization is done.
<aaslistener> 

  iter  continuity  x-velocity  y-velocity  z-velocity      energy           k     epsilon     time/iter
<aaslistener> 
     1  1.0000e+00  8.5995e-02  6.5535e-02  4.5683e-05  1.2800e-04  1.3400e-01  1.5051e-01  0:01:39   99
<aaslistener> 
     2  6.2589e-01  5.6131e-02  3.6475e-02  1.0947e-04  1.3974e-04  7.7407e-02  1.0479e-01  0:01:38   98
<aaslistener> 
     3  5.1916e-01  4.0420e-02  2.3503e-02  1.4087e-04  1.2005e-04  6.0963e-02  1.2843e-01  0:01:37   97
<aaslistener> 
     4  6.3899e-01  2.9134e-02  1.5002e-02  1.9156e-04  9.7817e-05  5.3634e-02  1.6383e-01  0:01:36   96
<aaslistener> 
     5  7.4335e-01  2.0858e-02  1.0754e-02  2.4292e-04  7.7054e-05  4.9574e-02  1.8198e-01  0:01:35   95
<aaslistener> 
     6  7.2645e-01  1.5079e-02  8.6029e-03  2.9787e-04  6.0705e-05  4.2667e-02  1.6795e-01  0:01:34   94
<aaslistener> 
     7  6.6918e-01  1.0982e-02  7.2042e-03  3.4621e-04  4.9243e-05  3.5983e-02  1.4003e-01  0:01:33   93
<aaslistener> 
     8  6.1740e-01  8.2849e-03  6.1299e-03  3.8849e-04  4.0988e-05  2.8681e-02  1.0623e-01  0:01:32   92
<aaslistener> 
     9  5.4962e-01  6.5340e-03  5.1358e-03  4.2594e-04  3.4812e-05  2.1659e-02  7.7318e-02  0:01:31   91
<aaslistener> 
    10  4.9792e-01  5.4706e-03  4.1845e-03  4.5782e-04  3.0197e-05  1.5894e-02  5.5872e-02  0:01:30   90
<aaslistener> 
    11  4.4983e-01  4.6978e-03  3.3499e-03  4.8733e-04  2.6846e-05  1.1691e-02  3.9937e-02  0:01:29   89

  iter  continuity  x-velocity  y-velocity  z-velocity      energy           k     epsilon     time/iter
<aaslistener> 
    12  4.1410e-01  4.0625e-03  2.7102e-03  5.1640e-04  2.3814e-05  8.9098e-03  2.7975e-02  0:01:28   88
<aaslistener> 
    13  3.8013e-01  3.4985e-03  2.3686e-03  5.4325e-04  2.1029e-05  7.0005e-03  1.9084e-02  0:01:10   87
<aaslistener> 
    14  3.4465e-01  2.9956e-03  2.2284e-03  5.7150e-04  1.8846e-05  6.0502e-03  1.5237e-02  0:01:12   86
<aaslistener> 
    15  3.2429e-01  2.5365e-03  2.1315e-03  6.0080e-04  1.7409e-05  5.6760e-03  1.6749e-02  0:01:14   85
<aaslistener> 
    16  3.0555e-01  2.1621e-03  2.0578e-03  6.3126e-04  1.6180e-05  5.3687e-03  1.8454e-02  0:01:15   84
<aaslistener> 
    17  2.8704e-01  1.8567e-03  1.9714e-03  6.5797e-04  1.5078e-05  5.0624e-03  1.9540e-02  0:01:16   83
<aaslistener> 
    18  2.7060e-01  1.6329e-03  1.8625e-03  6.8057e-04  1.3909e-05  4.7408e-03  1.9823e-02  0:01:00   82
<aaslistener> 
    19  2.5458e-01  1.4770e-03  1.7370e-03  6.9704e-04  1.2747e-05  4.4111e-03  1.9257e-02  0:01:04   81
<aaslistener> 
    20  2.3961e-01  1.3721e-03  1.6047e-03  7.0964e-04  1.1691e-05  4.1201e-03  1.8046e-02  0:01:06   80
<aaslistener> 
    21  2.2601e-01  1.3038e-03  1.4728e-03  7.1534e-04  1.0721e-05  3.9043e-03  1.6478e-02  0:01:08   79
<aaslistener> 
    22  2.1381e-01  1.2542e-03  1.3525e-03  7.1376e-04  9.8736e-06  3.8067e-03  1.4906e-02  0:01:10   78

  iter  continuity  x-velocity  y-velocity  z-velocity      energy           k     epsilon     time/iter
<aaslistener> 
    23  2.0291e-01  1.2178e-03  1.2496e-03  7.0763e-04  9.0606e-06  3.7731e-03  1.3934e-02  0:01:10   77
<aaslistener> 
    24  1.9269e-01  1.1839e-03  1.1619e-03  6.9611e-04  8.3581e-06  3.7223e-03  1.3244e-02  0:00:56   76
<aaslistener> 
    25  1.8325e-01  1.1459e-03  1.0857e-03  6.7899e-04  7.7498e-06  3.6265e-03  1.2547e-02  0:00:59   75
<aaslistener> 
    26  1.7503e-01  1.1074e-03  1.0181e-03  6.5651e-04  7.2356e-06  3.4886e-03  1.1736e-02  0:01:01   74
<aaslistener> 
    27  1.6716e-01  1.0688e-03  9.5945e-04  6.2886e-04  6.7333e-06  3.3144e-03  1.0847e-02  0:01:03   73
<aaslistener> 
    28  1.5990e-01  1.0291e-03  9.0752e-04  5.9786e-04  6.2545e-06  3.1104e-03  9.9068e-03  0:01:04   72
<aaslistener> 
    29  1.5193e-01  9.9059e-04  8.6259e-04  5.6621e-04  5.8513e-06  2.8948e-03  8.9420e-03  0:00:51   71
<aaslistener> 
    30  1.4366e-01  9.5386e-04  8.2896e-04  5.3811e-04  5.4817e-06  2.6773e-03  8.0019e-03  0:00:54   70
<aaslistener> 
    31  1.3622e-01  9.2390e-04  8.0965e-04  5.1547e-04  5.1234e-06  2.4718e-03  7.1446e-03  0:00:56   69
<aaslistener> 
    32  1.2979e-01  9.0374e-04  8.0500e-04  4.9827e-04  4.8374e-06  2.3013e-03  6.4535e-03  0:00:58   68
<aaslistener> 
    33  1.2649e-01  8.9310e-04  8.1327e-04  4.8744e-04  4.6743e-06  2.1853e-03  6.0258e-03  0:00:59   67

  iter  continuity  x-velocity  y-velocity  z-velocity      energy           k     epsilon     time/iter
<aaslistener> 
    34  1.2593e-01  8.9020e-04  8.3389e-04  4.8350e-04  4.5941e-06  2.1266e-03  5.9055e-03  0:00:47   66
<aaslistener> 
    35  1.2716e-01  8.9524e-04  8.6475e-04  4.8561e-04  4.5918e-06  2.1126e-03  6.0483e-03  0:00:50   65
<aaslistener> 
    36  1.3060e-01  9.0817e-04  9.0267e-04  4.9333e-04  4.6696e-06  2.1364e-03  6.3691e-03  0:00:52   64
<aaslistener> 
    37  1.3563e-01  9.2635e-04  9.4697e-04  5.1014e-04  4.8233e-06  2.1842e-03  6.7706e-03  0:00:54   63
<aaslistener> 
    38  1.4137e-01  9.4844e-04  9.9294e-04  5.3459e-04  5.0328e-06  2.2511e-03  7.2004e-03  0:00:55   62
<aaslistener> 
    39  1.4853e-01  9.7512e-04  1.0406e-03  5.6553e-04  5.2503e-06  2.3208e-03  7.6103e-03  0:00:43   61
<aaslistener> 
    40  1.5700e-01  1.0062e-03  1.0903e-03  5.9920e-04  5.4738e-06  2.3992e-03  7.9983e-03  0:00:46   60
<aaslistener> 
    41  1.6600e-01  1.0432e-03  1.1403e-03  6.3361e-04  5.6807e-06  2.4928e-03  8.4419e-03  0:00:48   59
<aaslistener> 
    42  1.7572e-01  1.0860e-03  1.1843e-03  6.6826e-04  5.8730e-06  2.5963e-03  8.8885e-03  0:00:49   58
<aaslistener> 
    43  1.8530e-01  1.1315e-03  1.2265e-03  7.0249e-04  6.0759e-06  2.6867e-03  9.2629e-03  0:00:50   57
<aaslistener> 
    44  1.9513e-01  1.1850e-03  1.2681e-03  7.3968e-04  6.2762e-06  2.7708e-03  9.5343e-03  0:00:39   56

  iter  continuity  x-velocity  y-velocity  z-velocity      energy           k     epsilon     time/iter
<aaslistener> 
    45  2.0383e-01  1.2423e-03  1.3141e-03  7.7915e-04  6.5010e-06  2.8712e-03  9.8482e-03  0:00:42   55
<aaslistener> 
    46  2.1157e-01  1.3073e-03  1.3594e-03  8.1854e-04  6.7602e-06  2.9809e-03  1.0218e-02  0:00:44   54
<aaslistener> 
    47  2.1779e-01  1.3809e-03  1.4093e-03  8.5716e-04  7.0604e-06  3.0823e-03  1.0508e-02  0:00:45   53
<aaslistener> 
    48  2.2511e-01  1.4613e-03  1.4659e-03  9.0051e-04  7.3768e-06  3.1881e-03  1.0673e-02  0:00:46   52
<aaslistener> 
    49  2.3168e-01  1.5462e-03  1.5284e-03  9.4892e-04  7.6894e-06  3.3100e-03  1.0787e-02  0:00:46   51
<aaslistener> 
    50  2.3888e-01  1.6338e-03  1.5978e-03  9.9698e-04  8.0237e-06  3.4529e-03  1.0974e-02  0:00:36   50
<aaslistener> 
    51  2.4570e-01  1.7262e-03  1.6779e-03  1.0400e-03  8.3416e-06  3.6034e-03  1.1178e-02  0:00:38   49
<aaslistener> 
    52  2.5122e-01  1.8157e-03  1.7642e-03  1.0777e-03  8.6384e-06  3.7564e-03  1.1425e-02  0:00:39   48
<aaslistener> 
    53  2.5624e-01  1.9005e-03  1.8534e-03  1.1080e-03  8.8537e-06  3.9127e-03  1.1716e-02  0:00:40   47
<aaslistener> 
    54  2.5959e-01  1.9793e-03  1.9406e-03  1.1298e-03  9.0627e-06  4.0654e-03  1.2038e-02  0:00:41   46
<aaslistener> 
    55  2.6187e-01  2.0528e-03  2.0257e-03  1.1380e-03  9.2334e-06  4.2042e-03  1.2391e-02  0:00:32   45

  iter  continuity  x-velocity  y-velocity  z-velocity      energy           k     epsilon     time/iter
<aaslistener> 
    56  2.6236e-01  2.1223e-03  2.1028e-03  1.1378e-03  9.3163e-06  4.3444e-03  1.2766e-02  0:00:34   44
<aaslistener> 
    57  2.6207e-01  2.1825e-03  2.1714e-03  1.1320e-03  9.3120e-06  4.4709e-03  1.2999e-02  0:00:35   43
<aaslistener> 
    58  2.6088e-01  2.2320e-03  2.2235e-03  1.1271e-03  9.2419e-06  4.5610e-03  1.3120e-02  0:00:36   42
<aaslistener> 
    59  2.5861e-01  2.2762e-03  2.2401e-03  1.1263e-03  9.1583e-06  4.6154e-03  1.3127e-02  0:00:36   41
<aaslistener> 
    60  2.5775e-01  2.3056e-03  2.2231e-03  1.1410e-03  8.9620e-06  4.6657e-03  1.3245e-02  0:00:36   40
<aaslistener> 
    61  2.5908e-01  2.3066e-03  2.1967e-03  1.1599e-03  8.7054e-06  4.7138e-03  1.3542e-02  0:00:28   39
<aaslistener> 
    62  2.5513e-01  2.2879e-03  2.1629e-03  1.1827e-03  8.4448e-06  4.7537e-03  1.3855e-02  0:00:30   38
<aaslistener> 
    63  2.5369e-01  2.2430e-03  2.1255e-03  1.2079e-03  8.2513e-06  4.7225e-03  1.3950e-02  0:00:30   37
<aaslistener> 
    64  2.5355e-01  2.1798e-03  2.0772e-03  1.2256e-03  8.1396e-06  4.5806e-03  1.3594e-02  0:00:31   36
<aaslistener> 
    65  2.5026e-01  2.1050e-03  2.0261e-03  1.2267e-03  8.0695e-06  4.3440e-03  1.2904e-02  0:00:31   35
<aaslistener> 
    66  2.4470e-01  2.0266e-03  1.9652e-03  1.2158e-03  8.0478e-06  4.1312e-03  1.2241e-02  0:00:31   34

  iter  continuity  x-velocity  y-velocity  z-velocity      energy           k     epsilon     time/iter
<aaslistener> 
    67  2.3937e-01  1.9596e-03  1.9087e-03  1.1948e-03  8.1078e-06  4.0110e-03  1.2098e-02  0:00:24   33
<aaslistener> 
    68  2.3579e-01  1.9048e-03  1.8621e-03  1.1710e-03  8.2577e-06  3.9243e-03  1.2320e-02  0:00:25   32
<aaslistener> 
    69  2.3190e-01  1.8619e-03  1.8283e-03  1.1497e-03  8.4183e-06  3.8389e-03  1.2416e-02  0:00:26   31
<aaslistener> 
    70  2.3083e-01  1.8286e-03  1.8078e-03  1.1308e-03  8.5253e-06  3.7686e-03  1.2339e-02  0:00:26   30
<aaslistener> 
    71  2.3311e-01  1.8002e-03  1.7915e-03  1.1198e-03  8.5414e-06  3.7462e-03  1.2322e-02  0:00:26   29
<aaslistener> 
    72  2.3625e-01  1.7728e-03  1.7740e-03  1.1137e-03  8.4355e-06  3.7271e-03  1.2297e-02  0:00:26   28
<aaslistener> 
    73  2.4071e-01  1.7432e-03  1.7545e-03  1.1063e-03  8.2264e-06  3.6893e-03  1.2303e-02  0:00:20   27
<aaslistener> 
    74  2.4516e-01  1.7020e-03  1.7304e-03  1.0921e-03  7.9069e-06  3.6251e-03  1.2249e-02  0:00:20   26
<aaslistener> 
    75  2.4873e-01  1.6541e-03  1.7033e-03  1.0679e-03  7.4856e-06  3.5567e-03  1.2188e-02  0:00:21   25
<aaslistener> 
    76  2.5051e-01  1.6021e-03  1.6744e-03  1.0389e-03  7.0472e-06  3.4773e-03  1.1998e-02  0:00:21   24
<aaslistener> 
    77  2.5011e-01  1.5520e-03  1.6495e-03  1.0061e-03  6.7310e-06  3.4364e-03  1.1687e-02  0:00:20   23

  iter  continuity  x-velocity  y-velocity  z-velocity      energy           k     epsilon     time/iter
<aaslistener> 
    78  2.4641e-01  1.5072e-03  1.6401e-03  9.7529e-04  6.5186e-06  3.4352e-03  1.1353e-02  0:00:20   22
<aaslistener> 
    79  2.4025e-01  1.4646e-03  1.6377e-03  9.5015e-04  6.4058e-06  3.4325e-03  1.1070e-02  0:00:15   21
<aaslistener> 
    80  2.3510e-01  1.4280e-03  1.6334e-03  9.3022e-04  6.3821e-06  3.4048e-03  1.0728e-02  0:00:16   20
<aaslistener> 
    81  2.2864e-01  1.3978e-03  1.6266e-03  9.1849e-04  6.4078e-06  3.3765e-03  1.0450e-02  0:00:16   19
<aaslistener> 
    82  2.2347e-01  1.3843e-03  1.6238e-03  9.1150e-04  6.4622e-06  3.3643e-03  1.0397e-02  0:00:16   18
<aaslistener> 
    83  2.1820e-01  1.3853e-03  1.6298e-03  9.1324e-04  6.5284e-06  3.3411e-03  1.0446e-02  0:00:15   17
<aaslistener> 
    84  2.1350e-01  1.3972e-03  1.6375e-03  9.2630e-04  6.6025e-06  3.3341e-03  1.0628e-02  0:00:15   16
<aaslistener> 
    85  2.1061e-01  1.4119e-03  1.6432e-03  9.4189e-04  6.6847e-06  3.3504e-03  1.0979e-02  0:00:14   15
<aaslistener> 
    86  2.1036e-01  1.4210e-03  1.6414e-03  9.4773e-04  6.7703e-06  3.3530e-03  1.1417e-02  0:00:13   14
<aaslistener> 
    87  2.1092e-01  1.4162e-03  1.6277e-03  9.3949e-04  6.8492e-06  3.3389e-03  1.1782e-02  0:00:12   13
<aaslistener> 
    88  2.1176e-01  1.3958e-03  1.5936e-03  9.1413e-04  6.8668e-06  3.3147e-03  1.2014e-02  0:00:12   12

  iter  continuity  x-velocity  y-velocity  z-velocity      energy           k     epsilon     time/iter
<aaslistener> 
    89  2.1233e-01  1.3584e-03  1.5468e-03  8.8057e-04  6.8510e-06  3.2829e-03  1.2093e-02  0:00:08   11
<aaslistener> 
    90  2.0951e-01  1.3057e-03  1.4878e-03  8.4200e-04  6.8188e-06  3.2287e-03  1.1994e-02  0:00:08   10
<aaslistener> 
    91  2.0492e-01  1.2442e-03  1.4350e-03  8.0516e-04  6.7625e-06  3.1378e-03  1.1708e-02  0:00:08    9
<aaslistener> 
    92  1.9984e-01  1.1791e-03  1.3809e-03  7.7695e-04  6.6522e-06  3.0315e-03  1.1253e-02  0:00:07    8
<aaslistener> 
    93  1.9404e-01  1.1154e-03  1.3356e-03  7.5732e-04  6.5337e-06  2.9047e-03  1.0609e-02  0:00:06    7
<aaslistener> 
    94  1.8812e-01  1.0583e-03  1.2933e-03  7.4101e-04  6.3959e-06  2.7706e-03  9.8781e-03  0:00:06    6
<aaslistener> 
    95  1.8235e-01  1.0167e-03  1.2547e-03  7.2733e-04  6.3021e-06  2.6356e-03  9.0591e-03  0:00:05    5
<aaslistener> 
    96  1.7754e-01  9.9039e-04  1.2189e-03  7.1261e-04  6.1512e-06  2.5022e-03  8.2179e-03  0:00:03    4
<aaslistener> 
    97  1.7314e-01  9.7458e-04  1.1826e-03  6.9539e-04  6.0466e-06  2.3706e-03  7.4323e-03  0:00:02    3
<aaslistener> 
    98  1.6973e-01  9.6895e-04  1.1445e-03  6.7927e-04  6.0634e-06  2.2408e-03  6.7238e-03  0:00:02    2
<aaslistener> 
    99  1.6602e-01  9.7271e-04  1.1070e-03  6.6346e-04  6.1452e-06  2.1212e-03  6.1436e-03  0:00:01    1

  iter  continuity  x-velocity  y-velocity  z-velocity      energy           k     epsilon     time/iter
<aaslistener> 
   100  1.6365e-01  9.8232e-04  1.0710e-03  6.4786e-04  6.3120e-06  2.0335e-03  5.7821e-03  0:00:00    0
/define/boundary/velocity-inlet (inlet)
inlet no no yes yes no 0.8333333457509677 no 0 no 303.15 no no yes 5 10/solve/initialize/compute-defaults/all-zonessolve iterate 100<aaslistener> 

  iter  continuity  x-velocity  y-velocity  z-velocity      energy           k     epsilon     time/iter
<aaslistener> 
   100  1.6365e-01  9.8232e-04  1.0710e-03  6.4786e-04  6.3120e-06  2.0335e-03  5.7821e-03  0:01:30  100
<aaslistener> 
   101  1.6282e-01  9.9600e-04  1.0412e-03  6.3365e-04  2.7322e-04  1.9805e-03  5.5634e-03  0:01:31   99
<aaslistener> 
   102  1.6188e-01  1.0097e-03  1.0159e-03  6.2404e-04  2.5177e-04  1.9527e-03  5.4370e-03  0:01:12   98
<aaslistener> 
   103  1.6073e-01  1.0267e-03  9.9462e-04  6.1858e-04  2.2077e-04  1.9461e-03  5.3772e-03  0:01:16   97
<aaslistener> 
   104  1.5933e-01  1.0450e-03  9.7938e-04  6.1418e-04  1.8447e-04  1.9508e-03  5.3381e-03  0:01:20   96
<aaslistener> 
   105  1.5773e-01  1.0621e-03  9.7191e-04  6.1063e-04  1.4893e-04  1.9682e-03  5.3159e-03  0:01:22   95
<aaslistener> 
   106  1.5541e-01  1.0789e-03  9.7240e-04  6.0595e-04  1.1865e-04  2.0027e-03  5.3237e-03  0:01:24   94
<aaslistener> 
   107  1.5366e-01  1.0968e-03  9.8137e-04  6.0200e-04  9.4994e-05  2.0612e-03  5.4414e-03  0:01:25   93
<aaslistener> 
   108  1.5244e-01  1.1202e-03  9.9390e-04  6.0114e-04  7.8103e-05  2.1377e-03  5.7139e-03  0:01:26   92
<aaslistener> 
   109  1.5175e-01  1.1471e-03  1.0075e-03  6.0272e-04  6.7154e-05  2.2291e-03  6.1079e-03  0:01:08   91
<aaslistener> 
   110  1.5190e-01  1.1751e-03  1.0236e-03  6.0805e-04  6.0715e-05  2.3333e-03  6.5792e-03  0:01:12   90

  iter  continuity  x-velocity  y-velocity  z-velocity      energy           k     epsilon     time/iter
<aaslistener> 
   111  1.5251e-01  1.2027e-03  1.0427e-03  6.1740e-04  5.7197e-05  2.4400e-03  7.0230e-03  0:01:14   89
<aaslistener> 
   112  1.5416e-01  1.2294e-03  1.0637e-03  6.3172e-04  5.5471e-05  2.5491e-03  7.4306e-03  0:01:16   88
<aaslistener> 
   113  1.5678e-01  1.2549e-03  1.0849e-03  6.4925e-04  5.4484e-05  2.6553e-03  7.8167e-03  0:01:18   87
<aaslistener> 
   114  1.5891e-01  1.2754e-03  1.1089e-03  6.6538e-04  5.3629e-05  2.7445e-03  8.1878e-03  0:01:19   86
<aaslistener> 
   115  1.6089e-01  1.2911e-03  1.1325e-03  6.7814e-04  5.2566e-05  2.8048e-03  8.4590e-03  0:01:19   85
<aaslistener> 
   116  1.6236e-01  1.2998e-03  1.1533e-03  6.8552e-04  5.1193e-05  2.8303e-03  8.6292e-03  0:01:03   84
<aaslistener> 
   117  1.6270e-01  1.3029e-03  1.1682e-03  6.8576e-04  4.9515e-05  2.8285e-03  8.7207e-03  0:01:06   83
<aaslistener> 
   118  1.6313e-01  1.2982e-03  1.1714e-03  6.8097e-04  4.7625e-05  2.8098e-03  8.7332e-03  0:01:09   82
<aaslistener> 
   119  1.6301e-01  1.2837e-03  1.1654e-03  6.7561e-04  4.5665e-05  2.7835e-03  8.6958e-03  0:01:10   81
<aaslistener> 
   120  1.6304e-01  1.2633e-03  1.1508e-03  6.7620e-04  4.3855e-05  2.7459e-03  8.6090e-03  0:01:12   80
<aaslistener> 
   121  1.6306e-01  1.2432e-03  1.1305e-03  6.8550e-04  4.2468e-05  2.7111e-03  8.4932e-03  0:01:12   79

  iter  continuity  x-velocity  y-velocity  z-velocity      energy           k     epsilon     time/iter
<aaslistener> 
   122  1.6363e-01  1.2302e-03  1.1102e-03  7.0544e-04  4.1611e-05  2.6823e-03  8.3623e-03  0:00:57   78
<aaslistener> 
   123  1.6465e-01  1.2326e-03  1.0984e-03  7.3147e-04  4.1187e-05  2.6668e-03  8.2635e-03  0:01:01   77
<aaslistener> 
   124  1.6782e-01  1.2516e-03  1.1007e-03  7.6231e-04  4.1087e-05  2.6816e-03  8.2025e-03  0:01:03   76
<aaslistener> 
   125  1.7322e-01  1.2878e-03  1.1186e-03  7.9510e-04  4.1240e-05  2.7284e-03  8.1753e-03  0:01:05   75
<aaslistener> 
   126  1.7905e-01  1.3400e-03  1.1536e-03  8.2916e-04  4.1424e-05  2.7975e-03  8.2130e-03  0:01:06   74
<aaslistener> 
   127  1.8557e-01  1.4006e-03  1.1999e-03  8.6134e-04  4.1535e-05  2.8775e-03  8.2858e-03  0:01:07   73
<aaslistener> 
   128  1.9147e-01  1.4621e-03  1.2518e-03  8.9097e-04  4.1475e-05  2.9670e-03  8.3428e-03  0:01:07   72
<aaslistener> 
   129  1.9626e-01  1.5205e-03  1.3054e-03  9.1567e-04  4.1259e-05  3.0558e-03  8.4449e-03  0:00:53   71
<aaslistener> 
   130  2.0138e-01  1.5688e-03  1.3530e-03  9.3379e-04  4.0836e-05  3.1245e-03  8.5776e-03  0:00:56   70
<aaslistener> 
   131  2.0520e-01  1.6045e-03  1.3929e-03  9.4599e-04  4.0249e-05  3.1755e-03  8.7672e-03  0:00:58   69
<aaslistener> 
   132  2.0738e-01  1.6327e-03  1.4223e-03  9.5151e-04  3.9408e-05  3.2205e-03  8.9955e-03  0:00:59   68

  iter  continuity  x-velocity  y-velocity  z-velocity      energy           k     epsilon     time/iter
<aaslistener> 
   133  2.0941e-01  1.6491e-03  1.4403e-03  9.5228e-04  3.8461e-05  3.2504e-03  9.2346e-03  0:01:00   67
<aaslistener> 
   134  2.1088e-01  1.6536e-03  1.4502e-03  9.4866e-04  3.7497e-05  3.2856e-03  9.4990e-03  0:01:00   66
<aaslistener> 
   135  2.0948e-01  1.6443e-03  1.4505e-03  9.4349e-04  3.6457e-05  3.3360e-03  9.7779e-03  0:01:01   65
<aaslistener> 
   136  2.0789e-01  1.6235e-03  1.4408e-03  9.3705e-04  3.5285e-05  3.3484e-03  9.9598e-03  0:00:48   64
<aaslistener> 
   137  2.0596e-01  1.6002e-03  1.4254e-03  9.3010e-04  3.4014e-05  3.3260e-03  1.0023e-02  0:00:50   63
<aaslistener> 
   138  2.0296e-01  1.5728e-03  1.4064e-03  9.2258e-04  3.2697e-05  3.3290e-03  1.0093e-02  0:00:52   62
<aaslistener> 
   139  1.9859e-01  1.5372e-03  1.3806e-03  9.1367e-04  3.1385e-05  3.3090e-03  1.0170e-02  0:00:53   61
<aaslistener> 
   140  1.9527e-01  1.5036e-03  1.3550e-03  9.0220e-04  3.0119e-05  3.2621e-03  1.0048e-02  0:00:54   60
<aaslistener> 
   141  1.9219e-01  1.4705e-03  1.3291e-03  8.8748e-04  2.8874e-05  3.1633e-03  9.6929e-03  0:00:54   59
<aaslistener> 
   142  1.8888e-01  1.4332e-03  1.2983e-03  8.6898e-04  2.7689e-05  3.0603e-03  9.2133e-03  0:00:54   58
<aaslistener> 
   143  1.8445e-01  1.3927e-03  1.2695e-03  8.4529e-04  2.6494e-05  2.9583e-03  8.7450e-03  0:00:54   57

  iter  continuity  x-velocity  y-velocity  z-velocity      energy           k     epsilon     time/iter
<aaslistener> 
   144  1.7856e-01  1.3489e-03  1.2419e-03  8.1826e-04  2.5241e-05  2.8397e-03  8.2967e-03  0:00:54   56
<aaslistener> 
   145  1.7149e-01  1.3021e-03  1.2135e-03  7.9008e-04  2.4029e-05  2.7010e-03  7.8454e-03  0:00:42   55
<aaslistener> 
   146  1.6411e-01  1.2508e-03  1.1855e-03  7.6308e-04  2.2987e-05  2.5785e-03  7.5125e-03  0:00:44   54
<aaslistener> 
   147  1.5667e-01  1.1983e-03  1.1635e-03  7.4221e-04  2.2250e-05  2.4868e-03  7.3835e-03  0:00:45   53
<aaslistener> 
   148  1.4994e-01  1.1589e-03  1.1492e-03  7.3696e-04  2.1736e-05  2.4371e-03  7.5175e-03  0:00:46   52
<aaslistener> 
   149  1.4522e-01  1.1356e-03  1.1478e-03  7.4399e-04  2.1421e-05  2.4443e-03  7.7791e-03  0:00:46   51
<aaslistener> 
   150  1.4402e-01  1.1286e-03  1.1599e-03  7.5706e-04  2.1238e-05  2.5045e-03  8.1286e-03  0:00:46   50
<aaslistener> 
   151  1.4540e-01  1.1388e-03  1.1842e-03  7.7394e-04  2.1133e-05  2.5992e-03  8.4696e-03  0:00:36   49
<aaslistener> 
   152  1.4918e-01  1.1600e-03  1.2176e-03  7.9241e-04  2.1155e-05  2.7149e-03  8.7445e-03  0:00:38   48
<aaslistener> 
   153  1.5554e-01  1.1902e-03  1.2544e-03  8.0842e-04  2.1182e-05  2.8455e-03  8.9565e-03  0:00:39   47
<aaslistener> 
   154  1.6231e-01  1.2280e-03  1.2956e-03  8.2217e-04  2.1187e-05  2.9720e-03  9.0475e-03  0:00:40   46

  iter  continuity  x-velocity  y-velocity  z-velocity      energy           k     epsilon     time/iter
<aaslistener> 
   155  1.7003e-01  1.2621e-03  1.3403e-03  8.3451e-04  2.1100e-05  3.0561e-03  8.9414e-03  0:00:40   45
<aaslistener> 
   156  1.7674e-01  1.2936e-03  1.3791e-03  8.4457e-04  2.0893e-05  3.0974e-03  8.6978e-03  0:00:40   44
<aaslistener> 
   157  1.8347e-01  1.3183e-03  1.4091e-03  8.5139e-04  2.0704e-05  3.0994e-03  8.3845e-03  0:00:40   43
<aaslistener> 
   158  1.8965e-01  1.3377e-03  1.4296e-03  8.5341e-04  2.0512e-05  3.0932e-03  8.0900e-03  0:00:31   42
<aaslistener> 
   159  1.9350e-01  1.3462e-03  1.4386e-03  8.4923e-04  2.0159e-05  3.0963e-03  7.8230e-03  0:00:33   41
<aaslistener> 
   160  1.9457e-01  1.3487e-03  1.4330e-03  8.4068e-04  1.9645e-05  3.0515e-03  7.5581e-03  0:00:33   40
<aaslistener> 
   161  1.9474e-01  1.3435e-03  1.4108e-03  8.2500e-04  1.9163e-05  2.9464e-03  7.2092e-03  0:00:34   39
<aaslistener> 
   162  1.9388e-01  1.3353e-03  1.3808e-03  8.0436e-04  1.8724e-05  2.8714e-03  6.9398e-03  0:00:34   38
<aaslistener> 
   163  1.9113e-01  1.3183e-03  1.3469e-03  7.8105e-04  1.8316e-05  2.7988e-03  6.7330e-03  0:00:34   37
<aaslistener> 
   164  1.8773e-01  1.2968e-03  1.3054e-03  7.5887e-04  1.7808e-05  2.6898e-03  6.4544e-03  0:00:34   36
<aaslistener> 
   165  1.8445e-01  1.2682e-03  1.2611e-03  7.3978e-04  1.7364e-05  2.5563e-03  6.1454e-03  0:00:33   35

  iter  continuity  x-velocity  y-velocity  z-velocity      energy           k     epsilon     time/iter
<aaslistener> 
   166  1.8095e-01  1.2373e-03  1.2170e-03  7.2823e-04  1.6940e-05  2.4278e-03  5.8926e-03  0:00:26   34
<aaslistener> 
   167  1.7614e-01  1.2048e-03  1.1768e-03  7.2267e-04  1.6588e-05  2.3312e-03  5.7721e-03  0:00:27   33
<aaslistener> 
   168  1.7143e-01  1.1740e-03  1.1453e-03  7.2647e-04  1.6277e-05  2.2595e-03  5.7666e-03  0:00:27   32
<aaslistener> 
   169  1.6702e-01  1.1519e-03  1.1263e-03  7.3937e-04  1.6043e-05  2.2164e-03  5.8378e-03  0:00:27   31
<aaslistener> 
   170  1.6356e-01  1.1420e-03  1.1166e-03  7.5462e-04  1.5868e-05  2.2112e-03  5.9619e-03  0:00:27   30
<aaslistener> 
   171  1.6190e-01  1.1409e-03  1.1126e-03  7.6953e-04  1.5724e-05  2.2430e-03  6.1370e-03  0:00:27   29
<aaslistener> 
   172  1.6143e-01  1.1437e-03  1.1139e-03  7.8538e-04  1.5591e-05  2.2995e-03  6.3586e-03  0:00:26   28
<aaslistener> 
   173  1.6107e-01  1.1470e-03  1.1163e-03  7.9926e-04  1.5474e-05  2.3755e-03  6.5935e-03  0:00:26   27
<aaslistener> 
   174  1.6081e-01  1.1497e-03  1.1216e-03  8.0758e-04  1.5344e-05  2.4492e-03  6.8087e-03  0:00:25   26
<aaslistener> 
   175  1.5975e-01  1.1506e-03  1.1271e-03  8.1155e-04  1.5151e-05  2.5050e-03  6.9816e-03  0:00:19   25
<aaslistener> 
   176  1.5846e-01  1.1459e-03  1.1316e-03  8.0995e-04  1.4875e-05  2.5579e-03  7.1632e-03  0:00:20   24

  iter  continuity  x-velocity  y-velocity  z-velocity      energy           k     epsilon     time/iter
<aaslistener> 
   177  1.5691e-01  1.1363e-03  1.1316e-03  8.0345e-04  1.4473e-05  2.5821e-03  7.2915e-03  0:00:20   23
<aaslistener> 
   178  1.5543e-01  1.1212e-03  1.1250e-03  7.9220e-04  1.3995e-05  2.5703e-03  7.3202e-03  0:00:19   22
<aaslistener> 
   179  1.5332e-01  1.1031e-03  1.1095e-03  7.7621e-04  1.3460e-05  2.5192e-03  7.2367e-03  0:00:19   21
<aaslistener> 
   180  1.5071e-01  1.0822e-03  1.0866e-03  7.5805e-04  1.2874e-05  2.4237e-03  7.0206e-03  0:00:18   20
<aaslistener> 
   181  1.4807e-01  1.0550e-03  1.0522e-03  7.3729e-04  1.2322e-05  2.3026e-03  6.6864e-03  0:00:18   19
<aaslistener> 
   182  1.4548e-01  1.0215e-03  1.0113e-03  7.1686e-04  1.1761e-05  2.1752e-03  6.3458e-03  0:00:14   18
<aaslistener> 
   183  1.4187e-01  9.8436e-04  9.6573e-04  6.9354e-04  1.1182e-05  2.0440e-03  6.0214e-03  0:00:14   17
<aaslistener> 
   184  1.3844e-01  9.4597e-04  9.1934e-04  6.6704e-04  1.0608e-05  1.9217e-03  5.6831e-03  0:00:13   16
<aaslistener> 
   185  1.3487e-01  9.0828e-04  8.7322e-04  6.3983e-04  1.0086e-05  1.8112e-03  5.3614e-03  0:00:13   15
<aaslistener> 
   186  1.3150e-01  8.7147e-04  8.3191e-04  6.1364e-04  9.5952e-06  1.7202e-03  5.1092e-03  0:00:13   14
<aaslistener> 
   187  1.2797e-01  8.3749e-04  7.9612e-04  5.8836e-04  9.1737e-06  1.6560e-03  4.9573e-03  0:00:09   13

  iter  continuity  x-velocity  y-velocity  z-velocity      energy           k     epsilon     time/iter
<aaslistener> 
   188  1.2513e-01  8.0602e-04  7.6520e-04  5.6494e-04  8.8225e-06  1.6134e-03  4.8462e-03  0:00:09   12
<aaslistener> 
   189  1.2203e-01  7.7958e-04  7.3694e-04  5.4334e-04  8.5502e-06  1.5844e-03  4.7710e-03  0:00:09   11
<aaslistener> 
   190  1.1840e-01  7.5481e-04  7.1115e-04  5.2195e-04  8.3130e-06  1.5609e-03  4.6591e-03  0:00:09   10
<aaslistener> 
   191  1.1445e-01  7.3249e-04  6.8860e-04  5.0104e-04  8.1165e-06  1.5384e-03  4.5138e-03  0:00:08    9
<aaslistener> 
   192  1.1085e-01  7.1091e-04  6.6862e-04  4.8024e-04  7.9631e-06  1.5169e-03  4.3568e-03  0:00:07    8
<aaslistener> 
   193  1.0706e-01  6.9203e-04  6.5115e-04  4.6073e-04  7.8319e-06  1.4941e-03  4.2105e-03  0:00:05    7
<aaslistener> 
   194  1.0352e-01  6.7598e-04  6.3726e-04  4.4422e-04  7.7120e-06  1.4750e-03  4.1097e-03  0:00:05    6
<aaslistener> 
   195  1.0115e-01  6.6387e-04  6.2642e-04  4.3077e-04  7.6025e-06  1.4609e-03  4.0420e-03  0:00:04    5
<aaslistener> 
   196  9.8955e-02  6.5625e-04  6.1762e-04  4.2041e-04  7.4982e-06  1.4481e-03  3.9965e-03  0:00:03    4
<aaslistener> 
   197  9.7282e-02  6.5133e-04  6.1089e-04  4.1350e-04  7.4170e-06  1.4313e-03  3.9694e-03  0:00:03    3
<aaslistener> 
   198  9.5888e-02  6.4795e-04  6.0549e-04  4.0973e-04  7.3054e-06  1.4062e-03  3.9424e-03  0:00:02    2

  iter  continuity  x-velocity  y-velocity  z-velocity      energy           k     epsilon     time/iter
<aaslistener> 
   199  9.5585e-02  6.4277e-04  6.0174e-04  4.0676e-04  7.1777e-06  1.3801e-03  3.9289e-03  0:00:01    1
<aaslistener> 
   200  9.6023e-02  6.3515e-04  5.9897e-04  4.0373e-04  7.0010e-06  1.3438e-03  3.8998e-03  0:00:00    0
/define/boundary/velocity-inlet (inlet)
inlet no no yes yes no 0.8333333457509677 no 0 no 283.15 no no yes 5 10/solve/initialize/compute-defaults/all-zonessolve iterate 100<aaslistener> 

  iter  continuity  x-velocity  y-velocity  z-velocity      energy           k     epsilon     time/iter
<aaslistener> 
   200  9.6023e-02  6.3515e-04  5.9897e-04  4.0373e-04  7.0010e-06  1.3438e-03  3.8998e-03  0:01:18  100
<aaslistener> 
   201  9.6159e-02  6.2409e-04  5.9611e-04  4.0072e-04  2.5865e-04  1.3066e-03  3.8368e-03  0:01:22   99
<aaslistener> 
   202  9.6099e-02  6.1169e-04  5.9139e-04  3.9739e-04  2.4029e-04  1.2693e-03  3.7484e-03  0:01:24   98
<aaslistener> 
   203  9.5921e-02  5.9621e-04  5.8583e-04  3.9220e-04  2.1272e-04  1.2359e-03  3.6508e-03  0:01:26   97
<aaslistener> 
   204  9.5555e-02  5.8124e-04  5.7896e-04  3.8537e-04  1.7967e-04  1.2141e-03  3.5661e-03  0:01:08   96
<aaslistener> 
   205  9.5203e-02  5.6709e-04  5.7300e-04  3.7766e-04  1.4567e-04  1.2000e-03  3.5159e-03  0:01:13   95
<aaslistener> 
   206  9.4873e-02  5.5567e-04  5.6688e-04  3.6995e-04  1.1580e-04  1.1877e-03  3.4668e-03  0:01:17   94
<aaslistener> 
   207  9.3866e-02  5.4605e-04  5.6212e-04  3.6401e-04  9.2094e-05  1.1818e-03  3.4065e-03  0:01:19   93
<aaslistener> 
   208  9.2850e-02  5.3913e-04  5.6028e-04  3.5986e-04  7.4807e-05  1.1898e-03  3.3399e-03  0:01:21   92
<aaslistener> 
   209  9.1903e-02  5.3459e-04  5.6349e-04  3.5660e-04  6.3040e-05  1.2111e-03  3.3082e-03  0:01:22   91
<aaslistener> 
   210  9.0658e-02  5.3312e-04  5.7264e-04  3.5270e-04  5.5453e-05  1.2481e-03  3.3667e-03  0:01:05   90

  iter  continuity  x-velocity  y-velocity  z-velocity      energy           k     epsilon     time/iter
<aaslistener> 
   211  8.9236e-02  5.3500e-04  5.8633e-04  3.4949e-04  5.0762e-05  1.2969e-03  3.5217e-03  0:01:09   89
<aaslistener> 
   212  8.7536e-02  5.4058e-04  6.0175e-04  3.4709e-04  4.7943e-05  1.3490e-03  3.7092e-03  0:01:12   88
<aaslistener> 
   213  8.5617e-02  5.5011e-04  6.1902e-04  3.4572e-04  4.6240e-05  1.4008e-03  3.9086e-03  0:01:15   87
<aaslistener> 
   214  8.3661e-02  5.6249e-04  6.3765e-04  3.4767e-04  4.5102e-05  1.4467e-03  4.1192e-03  0:01:16   86
<aaslistener> 
   215  8.1842e-02  5.7754e-04  6.5769e-04  3.5468e-04  4.4206e-05  1.4885e-03  4.3221e-03  0:01:17   85
<aaslistener> 
   216  8.0785e-02  5.9571e-04  6.7825e-04  3.6857e-04  4.3380e-05  1.5304e-03  4.5416e-03  0:01:18   84
<aaslistener> 
   217  8.0562e-02  6.1684e-04  6.9982e-04  3.8773e-04  4.2541e-05  1.5739e-03  4.7775e-03  0:01:02   83
<aaslistener> 
   218  8.1420e-02  6.4094e-04  7.2404e-04  4.0933e-04  4.1653e-05  1.6199e-03  4.9921e-03  0:01:05   82
<aaslistener> 
   219  8.3736e-02  6.6629e-04  7.4961e-04  4.3187e-04  4.0671e-05  1.6686e-03  5.1864e-03  0:01:08   81
<aaslistener> 
   220  8.6805e-02  6.9237e-04  7.7450e-04  4.5406e-04  3.9621e-05  1.7167e-03  5.3430e-03  0:01:09   80
<aaslistener> 
   221  9.0270e-02  7.1602e-04  7.9727e-04  4.7453e-04  3.8493e-05  1.7600e-03  5.4769e-03  0:01:11   79

  iter  continuity  x-velocity  y-velocity  z-velocity      energy           k     epsilon     time/iter
<aaslistener> 
   222  9.3737e-02  7.3643e-04  8.1495e-04  4.9160e-04  3.7312e-05  1.7903e-03  5.5687e-03  0:01:11   78
<aaslistener> 
   223  9.6753e-02  7.5136e-04  8.2724e-04  5.0474e-04  3.6124e-05  1.8052e-03  5.6124e-03  0:01:12   77
<aaslistener> 
   224  9.9953e-02  7.6371e-04  8.3242e-04  5.1334e-04  3.4931e-05  1.8009e-03  5.6139e-03  0:01:12   76
<aaslistener> 
   225  1.0297e-01  7.7361e-04  8.3049e-04  5.1846e-04  3.3771e-05  1.7920e-03  5.6140e-03  0:00:57   75
<aaslistener> 
   226  1.0564e-01  7.8230e-04  8.2260e-04  5.2068e-04  3.2656e-05  1.7765e-03  5.6170e-03  0:01:00   74
<aaslistener> 
   227  1.0773e-01  7.8943e-04  8.0921e-04  5.2070e-04  3.1603e-05  1.7674e-03  5.6395e-03  0:01:02   73
<aaslistener> 
   228  1.0983e-01  7.9519e-04  7.9129e-04  5.1976e-04  3.0603e-05  1.7724e-03  5.6905e-03  0:01:03   72
<aaslistener> 
   229  1.1128e-01  8.0228e-04  7.7333e-04  5.1927e-04  2.9669e-05  1.7869e-03  5.7961e-03  0:01:04   71
<aaslistener> 
   230  1.1206e-01  8.1039e-04  7.5958e-04  5.1892e-04  2.8803e-05  1.8059e-03  5.9174e-03  0:00:50   70
<aaslistener> 
   231  1.1261e-01  8.1842e-04  7.5210e-04  5.2042e-04  2.8021e-05  1.8310e-03  6.0512e-03  0:00:54   69
<aaslistener> 
   232  1.1303e-01  8.2534e-04  7.5326e-04  5.2343e-04  2.7305e-05  1.8589e-03  6.1808e-03  0:00:56   68

  iter  continuity  x-velocity  y-velocity  z-velocity      energy           k     epsilon     time/iter
<aaslistener> 
   233  1.1369e-01  8.3246e-04  7.6349e-04  5.2545e-04  2.6644e-05  1.8948e-03  6.3340e-03  0:00:57   67
<aaslistener> 
   234  1.1422e-01  8.3942e-04  7.8152e-04  5.2789e-04  2.5992e-05  1.9459e-03  6.5473e-03  0:00:58   66
<aaslistener> 
   235  1.1466e-01  8.4181e-04  8.0168e-04  5.3080e-04  2.5356e-05  1.9953e-03  6.7336e-03  0:00:59   65
<aaslistener> 
   236  1.1595e-01  8.3752e-04  8.2051e-04  5.3280e-04  2.4693e-05  2.0312e-03  6.8555e-03  0:00:59   64
<aaslistener> 
   237  1.1773e-01  8.2732e-04  8.3618e-04  5.3248e-04  2.4049e-05  2.0463e-03  6.8853e-03  0:00:47   63
<aaslistener> 
   238  1.1874e-01  8.1278e-04  8.4296e-04  5.2867e-04  2.3405e-05  2.0406e-03  6.8309e-03  0:00:49   62
<aaslistener> 
   239  1.1899e-01  7.9632e-04  8.4355e-04  5.2253e-04  2.2811e-05  2.0143e-03  6.6995e-03  0:00:51   61
<aaslistener> 
   240  1.1850e-01  7.7980e-04  8.3796e-04  5.1536e-04  2.2240e-05  1.9727e-03  6.5183e-03  0:00:52   60
<aaslistener> 
   241  1.1757e-01  7.6590e-04  8.2548e-04  5.0843e-04  2.1668e-05  1.9182e-03  6.2942e-03  0:00:53   59
<aaslistener> 
   242  1.1603e-01  7.5550e-04  8.0965e-04  5.0032e-04  2.1128e-05  1.8552e-03  6.0446e-03  0:00:53   58
<aaslistener> 
   243  1.1374e-01  7.4780e-04  7.8996e-04  4.9195e-04  2.0583e-05  1.7822e-03  5.7279e-03  0:00:53   57

  iter  continuity  x-velocity  y-velocity  z-velocity      energy           k     epsilon     time/iter
<aaslistener> 
   244  1.1140e-01  7.4250e-04  7.6898e-04  4.8496e-04  2.0038e-05  1.7103e-03  5.3851e-03  0:00:53   56
<aaslistener> 
   245  1.0954e-01  7.4074e-04  7.4668e-04  4.7886e-04  1.9507e-05  1.6604e-03  5.0775e-03  0:00:53   55
<aaslistener> 
   246  1.0793e-01  7.4489e-04  7.2605e-04  4.7538e-04  1.8999e-05  1.6362e-03  4.8453e-03  0:00:52   54
<aaslistener> 
   247  1.0718e-01  7.5292e-04  7.1059e-04  4.7409e-04  1.8488e-05  1.6263e-03  4.7352e-03  0:00:52   53
<aaslistener> 
   248  1.0755e-01  7.6110e-04  7.0244e-04  4.7533e-04  1.7978e-05  1.6262e-03  4.6974e-03  0:00:51   52
<aaslistener> 
   249  1.0835e-01  7.6694e-04  7.0047e-04  4.7785e-04  1.7490e-05  1.6333e-03  4.7140e-03  0:00:50   51
<aaslistener> 
   250  1.0881e-01  7.7051e-04  7.0620e-04  4.8141e-04  1.7006e-05  1.6494e-03  4.7754e-03  0:00:49   50
<aaslistener> 
   251  1.0945e-01  7.7278e-04  7.1509e-04  4.8433e-04  1.6573e-05  1.6833e-03  4.9023e-03  0:00:48   49
<aaslistener> 
   252  1.1052e-01  7.7599e-04  7.2682e-04  4.8892e-04  1.6193e-05  1.7309e-03  5.0999e-03  0:00:48   48
<aaslistener> 
   253  1.1133e-01  7.8001e-04  7.4343e-04  4.9581e-04  1.5864e-05  1.7847e-03  5.3257e-03  0:00:47   47
<aaslistener> 
   254  1.1283e-01  7.8588e-04  7.6166e-04  5.0262e-04  1.5597e-05  1.8386e-03  5.5733e-03  0:00:55   46

  iter  continuity  x-velocity  y-velocity  z-velocity      energy           k     epsilon     time/iter
<aaslistener> 
   255  1.1491e-01  7.9311e-04  7.8001e-04  5.0931e-04  1.5366e-05  1.8949e-03  5.8105e-03  0:00:52   45
<aaslistener> 
   256  1.1740e-01  8.0288e-04  7.9913e-04  5.1330e-04  1.5158e-05  1.9428e-03  6.0076e-03  0:00:49   44
<aaslistener> 
   257  1.2026e-01  8.1402e-04  8.1848e-04  5.1616e-04  1.4977e-05  1.9853e-03  6.1740e-03  0:00:56   43
<aaslistener> 
   258  1.2232e-01  8.2475e-04  8.3772e-04  5.1720e-04  1.4802e-05  2.0232e-03  6.2775e-03  0:00:52   42
<aaslistener> 
   259  1.2410e-01  8.3588e-04  8.5312e-04  5.1778e-04  1.4627e-05  2.0522e-03  6.3230e-03  0:00:49   41
<aaslistener> 
   260  1.2567e-01  8.4944e-04  8.6487e-04  5.1903e-04  1.4443e-05  2.0695e-03  6.3021e-03  0:00:38   40
<aaslistener> 
   261  1.2718e-01  8.6618e-04  8.7275e-04  5.2220e-04  1.4290e-05  2.0711e-03  6.1883e-03  0:00:38   39
<aaslistener> 
   262  1.2859e-01  8.8615e-04  8.7660e-04  5.2995e-04  1.4192e-05  2.0673e-03  6.0184e-03  0:00:37   38
<aaslistener> 
   263  1.3018e-01  9.0388e-04  8.7702e-04  5.4121e-04  1.4133e-05  2.0561e-03  5.8163e-03  0:00:36   37
<aaslistener> 
   264  1.3195e-01  9.2228e-04  8.7621e-04  5.5466e-04  1.4087e-05  2.0506e-03  5.5909e-03  0:00:35   36
<aaslistener> 
   265  1.3324e-01  9.3929e-04  8.7361e-04  5.6899e-04  1.4041e-05  2.0495e-03  5.3739e-03  0:00:34   35

  iter  continuity  x-velocity  y-velocity  z-velocity      energy           k     epsilon     time/iter
<aaslistener> 
   266  1.3527e-01  9.5609e-04  8.7129e-04  5.8514e-04  1.4017e-05  2.0492e-03  5.1840e-03  0:00:27   34
<aaslistener> 
   267  1.3745e-01  9.7230e-04  8.7223e-04  6.0167e-04  1.3976e-05  2.0444e-03  5.0449e-03  0:00:27   33
<aaslistener> 
   268  1.3912e-01  9.9047e-04  8.7482e-04  6.1845e-04  1.3902e-05  2.0345e-03  4.9908e-03  0:00:28   32
<aaslistener> 
   269  1.4121e-01  1.0057e-03  8.7810e-04  6.3387e-04  1.3757e-05  2.0245e-03  4.9561e-03  0:00:28   31
<aaslistener> 
   270  1.4356e-01  1.0155e-03  8.8487e-04  6.4833e-04  1.3572e-05  2.0070e-03  4.9113e-03  0:00:27   30
<aaslistener> 
   271  1.4556e-01  1.0210e-03  8.8783e-04  6.6012e-04  1.3279e-05  1.9848e-03  4.8721e-03  0:00:27   29
<aaslistener> 
   272  1.4748e-01  1.0184e-03  8.8985e-04  6.6733e-04  1.2970e-05  1.9532e-03  4.8243e-03  0:00:21   28
<aaslistener> 
   273  1.4862e-01  1.0070e-03  8.8721e-04  6.6960e-04  1.2662e-05  1.9186e-03  4.7656e-03  0:00:21   27
<aaslistener> 
   274  1.4869e-01  9.8960e-04  8.8094e-04  6.6932e-04  1.2341e-05  1.8796e-03  4.7078e-03  0:00:22   26
<aaslistener> 
   275  1.4784e-01  9.6737e-04  8.7232e-04  6.6573e-04  1.1959e-05  1.8359e-03  4.6718e-03  0:00:22   25
<aaslistener> 
   276  1.4639e-01  9.4203e-04  8.6020e-04  6.5721e-04  1.1559e-05  1.7905e-03  4.6241e-03  0:00:21   24

  iter  continuity  x-velocity  y-velocity  z-velocity      energy           k     epsilon     time/iter
<aaslistener> 
   277  1.4420e-01  9.1729e-04  8.4566e-04  6.4536e-04  1.1172e-05  1.7505e-03  4.6002e-03  0:00:16   23
<aaslistener> 
   278  1.4163e-01  8.9239e-04  8.3174e-04  6.2955e-04  1.0792e-05  1.7224e-03  4.6112e-03  0:00:17   22
<aaslistener> 
   279  1.3875e-01  8.7299e-04  8.1929e-04  6.1396e-04  1.0427e-05  1.7104e-03  4.6664e-03  0:00:17   21
<aaslistener> 
   280  1.3601e-01  8.5847e-04  8.1005e-04  5.9808e-04  1.0064e-05  1.7202e-03  4.7473e-03  0:00:17   20
<aaslistener> 
   281  1.3311e-01  8.4882e-04  8.0379e-04  5.8336e-04  9.7431e-06  1.7402e-03  4.8248e-03  0:00:17   19
<aaslistener> 
   282  1.3003e-01  8.4435e-04  8.0321e-04  5.7142e-04  9.4821e-06  1.7670e-03  4.9214e-03  0:00:16   18
<aaslistener> 
   283  1.2727e-01  8.4111e-04  8.0555e-04  5.6209e-04  9.2730e-06  1.7931e-03  5.0163e-03  0:00:12   17
<aaslistener> 
   284  1.2441e-01  8.3964e-04  8.1015e-04  5.5483e-04  9.1059e-06  1.8170e-03  5.1088e-03  0:00:12   16
<aaslistener> 
   285  1.2228e-01  8.4133e-04  8.1701e-04  5.5110e-04  8.9477e-06  1.8412e-03  5.2174e-03  0:00:12   15
<aaslistener> 
   286  1.2028e-01  8.4594e-04  8.2580e-04  5.5076e-04  8.8206e-06  1.8731e-03  5.3688e-03  0:00:12   14
<aaslistener> 
   287  1.1838e-01  8.5258e-04  8.3987e-04  5.5398e-04  8.7313e-06  1.9093e-03  5.5605e-03  0:00:12   13

  iter  continuity  x-velocity  y-velocity  z-velocity      energy           k     epsilon     time/iter
<aaslistener> 
   288  1.1711e-01  8.6253e-04  8.5918e-04  5.6102e-04  8.6980e-06  1.9508e-03  5.7621e-03  0:00:09   12
<aaslistener> 
   289  1.1669e-01  8.7641e-04  8.8410e-04  5.7125e-04  8.6996e-06  2.0054e-03  5.9837e-03  0:00:08   11
<aaslistener> 
   290  1.1718e-01  8.9313e-04  9.1383e-04  5.8590e-04  8.7504e-06  2.0739e-03  6.2407e-03  0:00:08   10
<aaslistener> 
   291  1.1866e-01  9.1620e-04  9.5073e-04  6.0426e-04  8.8366e-06  2.1540e-03  6.5183e-03  0:00:08    9
<aaslistener> 
   292  1.2187e-01  9.4207e-04  9.9262e-04  6.2540e-04  8.9646e-06  2.2478e-03  6.8105e-03  0:00:07    8
<aaslistener> 
   293  1.2650e-01  9.7321e-04  1.0370e-03  6.4759e-04  9.1318e-06  2.3465e-03  7.1093e-03  0:00:05    7
<aaslistener> 
   294  1.3150e-01  1.0099e-03  1.0829e-03  6.7139e-04  9.3542e-06  2.4515e-03  7.4131e-03  0:00:05    6
<aaslistener> 
   295  1.3635e-01  1.0537e-03  1.1305e-03  6.9764e-04  9.5835e-06  2.5625e-03  7.7183e-03  0:00:04    5
<aaslistener> 
   296  1.4157e-01  1.1051e-03  1.1814e-03  7.2477e-04  9.7938e-06  2.6791e-03  8.0225e-03  0:00:03    4
<aaslistener> 
   297  1.4690e-01  1.1638e-03  1.2275e-03  7.5036e-04  1.0009e-05  2.7872e-03  8.3087e-03  0:00:03    3
<aaslistener> 
   298  1.5278e-01  1.2226e-03  1.2708e-03  7.7637e-04  1.0227e-05  2.8879e-03  8.6326e-03  0:00:02    2

  iter  continuity  x-velocity  y-velocity  z-velocity      energy           k     epsilon     time/iter
<aaslistener> 
   299  1.5892e-01  1.2794e-03  1.3077e-03  8.0359e-04  1.0441e-05  2.9856e-03  8.9590e-03  0:00:01    1
<aaslistener> 
   300  1.6421e-01  1.3291e-03  1.3408e-03  8.3108e-04  1.0610e-05  3.0744e-03  9.2987e-03  0:00:00    0
/define/boundary/velocity-inlet (inlet)
inlet no no yes yes no 0.8333333457509677 no 0 no 303.15 no no yes 5 10/solve/initialize/compute-defaults/all-zonessolve iterate 100<aaslistener> 

  iter  continuity  x-velocity  y-velocity  z-velocity      energy           k     epsilon     time/iter
<aaslistener> 
   300  1.6421e-01  1.3291e-03  1.3408e-03  8.3108e-04  1.0610e-05  3.0744e-03  9.2987e-03  0:01:14  100
<aaslistener> 
   301  1.7117e-01  1.3734e-03  1.3696e-03  8.6094e-04  2.7430e-04  3.1434e-03  9.6547e-03  0:00:58   99
<aaslistener> 
   302  1.7877e-01  1.4118e-03  1.3951e-03  8.9210e-04  2.5144e-04  3.1836e-03  9.8874e-03  0:01:06   98
<aaslistener> 
   303  1.8530e-01  1.4400e-03  1.4244e-03  9.2600e-04  2.2090e-04  3.2323e-03  1.0194e-02  0:01:12   97
<aaslistener> 
   304  1.9236e-01  1.4565e-03  1.4555e-03  9.6034e-04  1.8511e-04  3.2695e-03  1.0452e-02  0:01:16   96
<aaslistener> 
   305  1.9989e-01  1.4649e-03  1.4854e-03  9.9336e-04  1.5000e-04  3.2916e-03  1.0584e-02  0:01:19   95
<aaslistener> 
   306  2.0783e-01  1.4637e-03  1.5126e-03  1.0224e-03  1.2011e-04  3.3117e-03  1.0642e-02  0:01:03   94
<aaslistener> 
   307  2.1461e-01  1.4569e-03  1.5294e-03  1.0455e-03  9.6806e-05  3.3540e-03  1.0758e-02  0:01:08   93
<aaslistener> 
   308  2.1927e-01  1.4439e-03  1.5371e-03  1.0555e-03  8.0312e-05  3.3813e-03  1.0856e-02  0:01:12   92
<aaslistener> 
   309  2.2318e-01  1.4284e-03  1.5400e-03  1.0500e-03  6.9805e-05  3.4422e-03  1.1219e-02  0:01:15   91
<aaslistener> 
   310  2.2442e-01  1.4178e-03  1.5391e-03  1.0417e-03  6.3443e-05  3.4687e-03  1.1499e-02  0:01:18   90

  iter  continuity  x-velocity  y-velocity  z-velocity      energy           k     epsilon     time/iter
<aaslistener> 
   311  2.2374e-01  1.4222e-03  1.5286e-03  1.0289e-03  5.9359e-05  3.4855e-03  1.1533e-02  0:01:19   89
<aaslistener> 
   312  2.2175e-01  1.4370e-03  1.5153e-03  1.0154e-03  5.6848e-05  3.4933e-03  1.1472e-02  0:01:20   88
<aaslistener> 
   313  2.1811e-01  1.4615e-03  1.4983e-03  1.0022e-03  5.5430e-05  3.5291e-03  1.1297e-02  0:01:04   87
<aaslistener> 
   314  2.1438e-01  1.4898e-03  1.4886e-03  9.9995e-04  5.4523e-05  3.5817e-03  1.1048e-02  0:01:25   86
<aaslistener> 
   315  2.1261e-01  1.5192e-03  1.4905e-03  1.0025e-03  5.3864e-05  3.5857e-03  1.0740e-02  0:01:07   85
<aaslistener> 
   316  2.1170e-01  1.5519e-03  1.5004e-03  1.0048e-03  5.3347e-05  3.6187e-03  1.0404e-02  0:01:10   84
<aaslistener> 
   317  2.1172e-01  1.5745e-03  1.5144e-03  1.0041e-03  5.2811e-05  3.6120e-03  1.0196e-02  0:01:12   83
<aaslistener> 
   318  2.1214e-01  1.5882e-03  1.5243e-03  1.0070e-03  5.2023e-05  3.5830e-03  1.0092e-02  0:01:13   82
<aaslistener> 
   319  2.1187e-01  1.5922e-03  1.5260e-03  1.0133e-03  5.0640e-05  3.5343e-03  1.0254e-02  0:01:14   81
<aaslistener> 
   320  2.1097e-01  1.5767e-03  1.5206e-03  1.0255e-03  4.8664e-05  3.3774e-03  1.0096e-02  0:01:14   80
<aaslistener> 
   321  2.0878e-01  1.5410e-03  1.4973e-03  1.0300e-03  4.6614e-05  3.2614e-03  9.8047e-03  0:01:15   79

  iter  continuity  x-velocity  y-velocity  z-velocity      energy           k     epsilon     time/iter
<aaslistener> 
   322  2.0616e-01  1.4933e-03  1.4593e-03  1.0273e-03  4.4559e-05  3.1754e-03  9.6977e-03  0:01:15   78
<aaslistener> 
   323  2.0377e-01  1.4449e-03  1.4251e-03  1.0203e-03  4.2962e-05  3.0907e-03  9.5395e-03  0:01:14   77
<aaslistener> 
   324  2.0247e-01  1.4095e-03  1.4017e-03  1.0113e-03  4.1809e-05  3.0192e-03  9.3762e-03  0:00:59   76
<aaslistener> 
   325  2.0184e-01  1.3927e-03  1.3929e-03  1.0067e-03  4.0949e-05  2.9674e-03  9.2109e-03  0:01:01   75
<aaslistener> 
   326  2.0235e-01  1.3987e-03  1.3935e-03  1.0031e-03  4.0391e-05  2.9645e-03  9.0729e-03  0:01:03   74
<aaslistener> 
   327  2.0371e-01  1.4152e-03  1.3954e-03  9.9678e-04  4.0034e-05  2.9880e-03  8.9914e-03  0:01:04   73
<aaslistener> 
   328  2.0637e-01  1.4408e-03  1.3887e-03  9.9481e-04  3.9768e-05  3.0147e-03  8.8489e-03  0:01:05   72
<aaslistener> 
   329  2.0777e-01  1.4714e-03  1.3774e-03  9.9368e-04  3.9395e-05  3.0320e-03  8.6281e-03  0:01:06   71
<aaslistener> 
   330  2.0947e-01  1.4936e-03  1.3638e-03  9.9242e-04  3.8820e-05  3.0189e-03  8.3748e-03  0:00:52   70
<aaslistener> 
   331  2.1037e-01  1.5034e-03  1.3447e-03  9.8711e-04  3.8102e-05  2.9792e-03  8.0905e-03  0:00:55   69
<aaslistener> 
   332  2.0968e-01  1.5043e-03  1.3253e-03  9.7905e-04  3.7211e-05  2.9114e-03  7.7868e-03  0:00:57   68

  iter  continuity  x-velocity  y-velocity  z-velocity      energy           k     epsilon     time/iter
<aaslistener> 
   333  2.0646e-01  1.4973e-03  1.3033e-03  9.6903e-04  3.6369e-05  2.8378e-03  7.4932e-03  0:00:58   67
<aaslistener> 
   334  2.0154e-01  1.4847e-03  1.2836e-03  9.5585e-04  3.5531e-05  2.7759e-03  7.2519e-03  0:00:59   66
<aaslistener> 
   335  1.9693e-01  1.4624e-03  1.2799e-03  9.3894e-04  3.4655e-05  2.7449e-03  7.1040e-03  0:00:59   65
<aaslistener> 
   336  1.9260e-01  1.4332e-03  1.2988e-03  9.2534e-04  3.3925e-05  2.7538e-03  7.1929e-03  0:01:00   64
<aaslistener> 
   337  1.8800e-01  1.4036e-03  1.3329e-03  9.1597e-04  3.3303e-05  2.8155e-03  7.5296e-03  0:01:00   63
<aaslistener> 
   338  1.8452e-01  1.3810e-03  1.3761e-03  9.0956e-04  3.2733e-05  2.9142e-03  8.0456e-03  0:00:59   62
<aaslistener> 
   339  1.8333e-01  1.3660e-03  1.4169e-03  9.0800e-04  3.2141e-05  3.0291e-03  8.5970e-03  0:00:59   61
<aaslistener> 
   340  1.8385e-01  1.3654e-03  1.4457e-03  9.1085e-04  3.1722e-05  3.1456e-03  9.1415e-03  0:00:58   60
<aaslistener> 
   341  1.8560e-01  1.3812e-03  1.4595e-03  9.1477e-04  3.1619e-05  3.2458e-03  9.6063e-03  0:00:46   59
<aaslistener> 
   342  1.8915e-01  1.4144e-03  1.4588e-03  9.1823e-04  3.1773e-05  3.3582e-03  1.0033e-02  0:00:48   58
<aaslistener> 
   343  1.9218e-01  1.4674e-03  1.4544e-03  9.2079e-04  3.2092e-05  3.4811e-03  1.0512e-02  0:00:49   57

  iter  continuity  x-velocity  y-velocity  z-velocity      energy           k     epsilon     time/iter
<aaslistener> 
   344  1.9541e-01  1.5268e-03  1.4601e-03  9.2429e-04  3.2446e-05  3.6029e-03  1.0919e-02  0:00:50   56
<aaslistener> 
   345  1.9704e-01  1.5843e-03  1.4737e-03  9.3334e-04  3.2762e-05  3.6905e-03  1.1205e-02  0:00:50   55
<aaslistener> 
   346  1.9729e-01  1.6344e-03  1.4908e-03  9.4783e-04  3.2982e-05  3.7153e-03  1.1293e-02  0:00:50   54
<aaslistener> 
   347  1.9782e-01  1.6786e-03  1.5125e-03  9.6878e-04  3.2932e-05  3.6999e-03  1.1268e-02  0:00:50   53
<aaslistener> 
   348  2.0192e-01  1.7034e-03  1.5432e-03  1.0000e-03  3.2455e-05  3.6742e-03  1.1177e-02  0:00:39   52
<aaslistener> 
   349  2.0629e-01  1.6963e-03  1.5805e-03  1.0363e-03  3.1832e-05  3.6345e-03  1.0978e-02  0:00:41   51
<aaslistener> 
   350  2.1069e-01  1.6616e-03  1.6169e-03  1.0673e-03  3.1044e-05  3.5826e-03  1.0735e-02  0:00:42   50
<aaslistener> 
   351  2.1549e-01  1.6140e-03  1.6514e-03  1.0878e-03  3.0072e-05  3.5419e-03  1.0678e-02  0:00:43   49
<aaslistener> 
   352  2.2033e-01  1.5612e-03  1.6771e-03  1.0975e-03  2.9261e-05  3.5183e-03  1.0781e-02  0:00:43   48
<aaslistener> 
   353  2.2547e-01  1.5122e-03  1.6861e-03  1.0943e-03  2.8594e-05  3.4848e-03  1.0889e-02  0:00:43   47
<aaslistener> 
   354  2.2992e-01  1.4800e-03  1.6683e-03  1.0775e-03  2.8282e-05  3.4565e-03  1.0877e-02  0:00:43   46

  iter  continuity  x-velocity  y-velocity  z-velocity      energy           k     epsilon     time/iter
<aaslistener> 
   355  2.3162e-01  1.4774e-03  1.6307e-03  1.0572e-03  2.8142e-05  3.4117e-03  1.0705e-02  0:00:34   45
<aaslistener> 
   356  2.2972e-01  1.5023e-03  1.5794e-03  1.0340e-03  2.7970e-05  3.3616e-03  1.0424e-02  0:00:35   44
<aaslistener> 
   357  2.2727e-01  1.5415e-03  1.5287e-03  1.0118e-03  2.7808e-05  3.3104e-03  1.0049e-02  0:00:36   43
<aaslistener> 
   358  2.2545e-01  1.5794e-03  1.4826e-03  9.9197e-04  2.7675e-05  3.2535e-03  9.5964e-03  0:00:37   42
<aaslistener> 
   359  2.2252e-01  1.6082e-03  1.4372e-03  9.7947e-04  2.7464e-05  3.1903e-03  9.0804e-03  0:00:37   41
<aaslistener> 
   360  2.1958e-01  1.6237e-03  1.3913e-03  9.7065e-04  2.7109e-05  3.1339e-03  8.6332e-03  0:00:37   40
<aaslistener> 
   361  2.1647e-01  1.6330e-03  1.3554e-03  9.6702e-04  2.6636e-05  3.0937e-03  8.3177e-03  0:00:29   39
<aaslistener> 
   362  2.1445e-01  1.6406e-03  1.3372e-03  9.6706e-04  2.6064e-05  3.0708e-03  8.2256e-03  0:00:30   38
<aaslistener> 
   363  2.1310e-01  1.6457e-03  1.3393e-03  9.6957e-04  2.5583e-05  3.0896e-03  8.4003e-03  0:00:31   37
<aaslistener> 
   364  2.1186e-01  1.6424e-03  1.3618e-03  9.7536e-04  2.5246e-05  3.1596e-03  8.8551e-03  0:00:31   36
<aaslistener> 
   365  2.1178e-01  1.6285e-03  1.3966e-03  9.9119e-04  2.5039e-05  3.2581e-03  9.4661e-03  0:00:31   35

  iter  continuity  x-velocity  y-velocity  z-velocity      energy           k     epsilon     time/iter
<aaslistener> 
   366  2.1327e-01  1.6044e-03  1.4367e-03  1.0071e-03  2.4912e-05  3.3427e-03  1.0003e-02  0:00:24   34
<aaslistener> 
   367  2.1512e-01  1.5735e-03  1.4859e-03  1.0173e-03  2.4801e-05  3.3935e-03  1.0362e-02  0:00:25   33
<aaslistener> 
   368  2.1798e-01  1.5477e-03  1.5362e-03  1.0242e-03  2.4865e-05  3.4158e-03  1.0569e-02  0:00:26   32
<aaslistener> 
   369  2.2181e-01  1.5344e-03  1.5806e-03  1.0240e-03  2.4912e-05  3.4172e-03  1.0610e-02  0:00:26   31
<aaslistener> 
   370  2.2647e-01  1.5342e-03  1.6156e-03  1.0155e-03  2.4912e-05  3.4513e-03  1.0647e-02  0:00:26   30
<aaslistener> 
   371  2.3039e-01  1.5390e-03  1.6305e-03  1.0032e-03  2.4769e-05  3.5050e-03  1.0762e-02  0:00:26   29
<aaslistener> 
   372  2.3518e-01  1.5399e-03  1.6302e-03  9.9539e-04  2.4464e-05  3.5431e-03  1.0860e-02  0:00:20   28
<aaslistener> 
   373  2.3580e-01  1.5356e-03  1.6143e-03  9.8575e-04  2.4136e-05  3.5680e-03  1.0937e-02  0:00:21   27
<aaslistener> 
   374  2.3298e-01  1.5341e-03  1.5883e-03  9.8035e-04  2.3982e-05  3.5799e-03  1.0959e-02  0:00:21   26
<aaslistener> 
   375  2.2834e-01  1.5420e-03  1.5623e-03  9.8787e-04  2.3994e-05  3.6542e-03  1.1162e-02  0:00:21   25
<aaslistener> 
   376  2.2517e-01  1.5563e-03  1.5424e-03  1.0024e-03  2.3927e-05  3.7164e-03  1.1452e-02  0:00:21   24

  iter  continuity  x-velocity  y-velocity  z-velocity      energy           k     epsilon     time/iter
<aaslistener> 
   377  2.2258e-01  1.5747e-03  1.5358e-03  1.0190e-03  2.3881e-05  3.7185e-03  1.1570e-02  0:00:21   23
<aaslistener> 
   378  2.2332e-01  1.5903e-03  1.5477e-03  1.0380e-03  2.3744e-05  3.7301e-03  1.1639e-02  0:00:20   22
<aaslistener> 
   379  2.2599e-01  1.5892e-03  1.5572e-03  1.0563e-03  2.3695e-05  3.7819e-03  1.1661e-02  0:00:16   21
<aaslistener> 
   380  2.3180e-01  1.5871e-03  1.5697e-03  1.0720e-03  2.3664e-05  3.8106e-03  1.1763e-02  0:00:16   20
<aaslistener> 
   381  2.3873e-01  1.5848e-03  1.5906e-03  1.0860e-03  2.3589e-05  3.7950e-03  1.1704e-02  0:00:16   19
<aaslistener> 
   382  2.4440e-01  1.5830e-03  1.6171e-03  1.0979e-03  2.3452e-05  3.7525e-03  1.1446e-02  0:00:16   18
<aaslistener> 
   383  2.4985e-01  1.5833e-03  1.6414e-03  1.1014e-03  2.3112e-05  3.6638e-03  1.1056e-02  0:00:15   17
<aaslistener> 
   384  2.5411e-01  1.5849e-03  1.6510e-03  1.1031e-03  2.2706e-05  3.5558e-03  1.0641e-02  0:00:11   16
<aaslistener> 
   385  2.5659e-01  1.5888e-03  1.6389e-03  1.0955e-03  2.2193e-05  3.4586e-03  1.0222e-02  0:00:12   15
<aaslistener> 
   386  2.5398e-01  1.5899e-03  1.5999e-03  1.0846e-03  2.1775e-05  3.3840e-03  9.9750e-03  0:00:11   14
<aaslistener> 
   387  2.4650e-01  1.5890e-03  1.5418e-03  1.0827e-03  2.1459e-05  3.3416e-03  9.8902e-03  0:00:11   13

  iter  continuity  x-velocity  y-velocity  z-velocity      energy           k     epsilon     time/iter
<aaslistener> 
   388  2.3959e-01  1.5846e-03  1.4812e-03  1.0839e-03  2.1193e-05  3.3107e-03  9.9170e-03  0:00:11   12
<aaslistener> 
   389  2.3431e-01  1.5731e-03  1.4235e-03  1.0794e-03  2.1093e-05  3.2827e-03  9.9581e-03  0:00:08   11
<aaslistener> 
   390  2.3063e-01  1.5589e-03  1.3740e-03  1.0717e-03  2.1082e-05  3.2849e-03  1.0021e-02  0:00:08   10
<aaslistener> 
   391  2.2874e-01  1.5412e-03  1.3511e-03  1.0557e-03  2.1148e-05  3.2987e-03  1.0111e-02  0:00:07    9
<aaslistener> 
   392  2.2688e-01  1.5361e-03  1.3614e-03  1.0312e-03  2.1169e-05  3.3247e-03  1.0241e-02  0:00:07    8
<aaslistener> 
   393  2.2295e-01  1.5371e-03  1.4040e-03  1.0103e-03  2.1245e-05  3.3591e-03  1.0439e-02  0:00:06    7
<aaslistener> 
   394  2.2054e-01  1.5373e-03  1.4715e-03  1.0002e-03  2.1321e-05  3.4174e-03  1.0555e-02  0:00:04    6
<aaslistener> 
   395  2.2012e-01  1.5388e-03  1.5412e-03  1.0039e-03  2.1536e-05  3.5038e-03  1.0732e-02  0:00:04    5
<aaslistener> 
   396  2.2285e-01  1.5437e-03  1.6048e-03  1.0162e-03  2.1821e-05  3.6255e-03  1.1045e-02  0:00:03    4
<aaslistener> 
   397  2.2720e-01  1.5504e-03  1.6592e-03  1.0310e-03  2.2055e-05  3.7511e-03  1.1433e-02  0:00:03    3
<aaslistener> 
   398  2.3210e-01  1.5588e-03  1.6916e-03  1.0487e-03  2.2320e-05  3.8764e-03  1.1945e-02  0:00:02    2

  iter  continuity  x-velocity  y-velocity  z-velocity      energy           k     epsilon     time/iter
<aaslistener> 
   399  2.3602e-01  1.5682e-03  1.7040e-03  1.0570e-03  2.2351e-05  3.9609e-03  1.2373e-02  0:00:01    1
<aaslistener> 
   400  2.3705e-01  1.5688e-03  1.7035e-03  1.0546e-03  2.2181e-05  4.0023e-03  1.2624e-02  0:00:00    0
/define/boundary/velocity-inlet (inlet)
inlet no no yes yes no 0.8333333457509677 no 0 no 283.15 no no yes 5 10/solve/initialize/compute-defaults/all-zonessolve iterate 100<aaslistener> 

  iter  continuity  x-velocity  y-velocity  z-velocity      energy           k     epsilon     time/iter
<aaslistener> 
   400  2.3705e-01  1.5688e-03  1.7035e-03  1.0546e-03  2.2181e-05  4.0023e-03  1.2624e-02  0:01:12  100
<aaslistener> 
   401  2.3655e-01  1.5677e-03  1.6998e-03  1.0402e-03  2.6253e-04  4.0246e-03  1.2691e-02  0:01:17   99
<aaslistener> 
   402  2.3580e-01  1.5737e-03  1.7041e-03  1.0317e-03  2.4232e-04  4.0559e-03  1.2614e-02  0:01:21   98
<aaslistener> 
   403  2.3910e-01  1.5984e-03  1.7246e-03  1.0282e-03  2.1926e-04  4.1281e-03  1.2595e-02  0:01:23   97
<aaslistener> 
   404  2.4556e-01  1.6494e-03  1.7597e-03  1.0352e-03  1.8931e-04  4.2235e-03  1.2766e-02  0:01:25   96
<aaslistener> 
   405  2.5417e-01  1.7153e-03  1.8070e-03  1.0545e-03  1.5800e-04  4.3250e-03  1.2967e-02  0:01:07   95
<aaslistener> 
   406  2.6339e-01  1.7894e-03  1.8543e-03  1.0931e-03  1.2908e-04  4.4273e-03  1.3164e-02  0:01:12   94
<aaslistener> 
   407  2.7323e-01  1.8623e-03  1.8948e-03  1.1477e-03  1.0546e-04  4.5145e-03  1.3371e-02  0:01:16   93
<aaslistener> 
   408  2.8093e-01  1.9290e-03  1.9260e-03  1.2120e-03  8.8120e-05  4.5924e-03  1.3624e-02  0:01:18   92
<aaslistener> 
   409  2.9138e-01  1.9862e-03  1.9605e-03  1.2753e-03  7.7130e-05  4.6765e-03  1.4018e-02  0:01:20   91
<aaslistener> 
   410  3.0077e-01  2.0294e-03  1.9946e-03  1.3346e-03  7.1207e-05  4.7679e-03  1.4470e-02  0:01:03   90

  iter  continuity  x-velocity  y-velocity  z-velocity      energy           k     epsilon     time/iter
<aaslistener> 
   411  3.1124e-01  2.0571e-03  2.0298e-03  1.3875e-03  6.8300e-05  4.8728e-03  1.5177e-02  0:01:08   89
<aaslistener> 
   412  3.1973e-01  2.0722e-03  2.0743e-03  1.4297e-03  6.6911e-05  4.9852e-03  1.5900e-02  0:01:11   88
<aaslistener> 
   413  3.2954e-01  2.0785e-03  2.1225e-03  1.4594e-03  6.6141e-05  5.0602e-03  1.6621e-02  0:01:14   87
<aaslistener> 
   414  3.3733e-01  2.0831e-03  2.1735e-03  1.4796e-03  6.5418e-05  5.1091e-03  1.7173e-02  0:01:16   86
<aaslistener> 
   415  3.4465e-01  2.0932e-03  2.2343e-03  1.4995e-03  6.4610e-05  5.1749e-03  1.7630e-02  0:01:17   85
<aaslistener> 
   416  3.5043e-01  2.1191e-03  2.3068e-03  1.5263e-03  6.3802e-05  5.2595e-03  1.8041e-02  0:01:01   84
<aaslistener> 
   417  3.5739e-01  2.1534e-03  2.3929e-03  1.5439e-03  6.2825e-05  5.3399e-03  1.8266e-02  0:01:05   83
<aaslistener> 
   418  3.6076e-01  2.1879e-03  2.4804e-03  1.5495e-03  6.1753e-05  5.4575e-03  1.8576e-02  0:01:07   82
<aaslistener> 
   419  3.6338e-01  2.2247e-03  2.5660e-03  1.5619e-03  6.0631e-05  5.5602e-03  1.8700e-02  0:01:09   81
<aaslistener> 
   420  3.6381e-01  2.2519e-03  2.6481e-03  1.5630e-03  5.9266e-05  5.6063e-03  1.8665e-02  0:01:11   80
<aaslistener> 
   421  3.6218e-01  2.2605e-03  2.7075e-03  1.5690e-03  5.7882e-05  5.6380e-03  1.8632e-02  0:00:56   79

  iter  continuity  x-velocity  y-velocity  z-velocity      energy           k     epsilon     time/iter
<aaslistener> 
   422  3.6075e-01  2.2484e-03  2.7411e-03  1.5597e-03  5.6487e-05  5.6562e-03  1.8737e-02  0:01:00   78
<aaslistener> 
   423  3.5799e-01  2.2262e-03  2.7518e-03  1.5489e-03  5.5104e-05  5.6788e-03  1.8963e-02  0:01:03   77
<aaslistener> 
   424  3.5359e-01  2.2056e-03  2.7425e-03  1.5391e-03  5.3671e-05  5.7023e-03  1.9343e-02  0:01:05   76
<aaslistener> 
   425  3.4559e-01  2.1854e-03  2.7271e-03  1.5288e-03  5.2382e-05  5.7290e-03  1.9696e-02  0:01:06   75
<aaslistener> 
   426  3.3916e-01  2.1784e-03  2.7119e-03  1.5362e-03  5.1508e-05  5.7939e-03  2.0027e-02  0:01:07   74
<aaslistener> 
   427  3.3418e-01  2.1797e-03  2.7029e-03  1.5700e-03  5.1146e-05  5.9094e-03  2.0316e-02  0:00:53   73
<aaslistener> 
   428  3.3220e-01  2.1865e-03  2.7052e-03  1.6163e-03  5.1141e-05  5.9909e-03  2.0250e-02  0:00:56   72
<aaslistener> 
   429  3.3346e-01  2.2045e-03  2.7077e-03  1.6708e-03  5.1119e-05  6.0630e-03  2.0024e-02  0:00:58   71
<aaslistener> 
   430  3.3440e-01  2.2284e-03  2.7067e-03  1.7281e-03  5.0749e-05  6.0314e-03  1.9461e-02  0:01:00   70
<aaslistener> 
   431  3.3590e-01  2.2534e-03  2.6856e-03  1.7608e-03  4.9789e-05  5.9162e-03  1.8574e-02  0:01:01   69
<aaslistener> 
   432  3.3779e-01  2.2690e-03  2.6473e-03  1.7650e-03  4.8256e-05  5.7200e-03  1.7466e-02  0:00:48   68

  iter  continuity  x-velocity  y-velocity  z-velocity      energy           k     epsilon     time/iter
<aaslistener> 
   433  3.4105e-01  2.2676e-03  2.5773e-03  1.7419e-03  4.6272e-05  5.5110e-03  1.6633e-02  0:00:51   67
<aaslistener> 
   434  3.3999e-01  2.2477e-03  2.4852e-03  1.6951e-03  4.4139e-05  5.3148e-03  1.6125e-02  0:00:54   66
<aaslistener> 
   435  3.3595e-01  2.2108e-03  2.3754e-03  1.6404e-03  4.2092e-05  5.1279e-03  1.5744e-02  0:00:55   65
<aaslistener> 
   436  3.2864e-01  2.1705e-03  2.2583e-03  1.5787e-03  4.0167e-05  4.9476e-03  1.5456e-02  0:00:56   64
<aaslistener> 
   437  3.1967e-01  2.1234e-03  2.1310e-03  1.5165e-03  3.8516e-05  4.7624e-03  1.5109e-02  0:00:57   63
<aaslistener> 
   438  3.1028e-01  2.0783e-03  2.0109e-03  1.4651e-03  3.7335e-05  4.5504e-03  1.4520e-02  0:00:45   62
<aaslistener> 
   439  3.0074e-01  2.0272e-03  1.9133e-03  1.4215e-03  3.6462e-05  4.3508e-03  1.3918e-02  0:00:48   61
<aaslistener> 
   440  2.9039e-01  1.9794e-03  1.8457e-03  1.3939e-03  3.5810e-05  4.2106e-03  1.3396e-02  0:00:49   60
<aaslistener> 
   441  2.8321e-01  1.9338e-03  1.8117e-03  1.3752e-03  3.5119e-05  4.1547e-03  1.2999e-02  0:00:51   59
<aaslistener> 
   442  2.7673e-01  1.8950e-03  1.8007e-03  1.3663e-03  3.4401e-05  4.1849e-03  1.2859e-02  0:00:51   58
<aaslistener> 
   443  2.7217e-01  1.8623e-03  1.8132e-03  1.3688e-03  3.3658e-05  4.2207e-03  1.2773e-02  0:00:40   57

  iter  continuity  x-velocity  y-velocity  z-velocity      energy           k     epsilon     time/iter
<aaslistener> 
   444  2.6839e-01  1.8349e-03  1.8390e-03  1.3682e-03  3.2839e-05  4.2678e-03  1.2777e-02  0:00:43   56
<aaslistener> 
   445  2.6552e-01  1.8113e-03  1.8685e-03  1.3585e-03  3.1988e-05  4.3270e-03  1.2976e-02  0:00:45   55
<aaslistener> 
   446  2.6372e-01  1.7839e-03  1.8972e-03  1.3381e-03  3.1017e-05  4.3734e-03  1.3233e-02  0:00:46   54
<aaslistener> 
   447  2.5970e-01  1.7538e-03  1.9180e-03  1.3124e-03  2.9823e-05  4.4241e-03  1.3566e-02  0:00:47   53
<aaslistener> 
   448  2.5803e-01  1.7237e-03  1.9247e-03  1.2803e-03  2.8423e-05  4.4577e-03  1.3936e-02  0:00:47   52
<aaslistener> 
   449  2.5650e-01  1.6943e-03  1.9186e-03  1.2437e-03  2.7050e-05  4.4840e-03  1.4405e-02  0:00:37   51
<aaslistener> 
   450  2.5612e-01  1.6667e-03  1.8945e-03  1.2040e-03  2.5682e-05  4.4744e-03  1.4813e-02  0:00:39   50
<aaslistener> 
   451  2.5441e-01  1.6377e-03  1.8564e-03  1.1651e-03  2.4433e-05  4.3972e-03  1.4946e-02  0:00:40   49
<aaslistener> 
   452  2.5185e-01  1.6063e-03  1.8066e-03  1.1229e-03  2.3302e-05  4.2695e-03  1.4718e-02  0:00:41   48
<aaslistener> 
   453  2.4727e-01  1.5804e-03  1.7369e-03  1.0863e-03  2.2453e-05  4.1134e-03  1.4153e-02  0:00:42   47
<aaslistener> 
   454  2.4098e-01  1.5578e-03  1.6512e-03  1.0522e-03  2.1891e-05  3.9381e-03  1.3360e-02  0:00:42   46

  iter  continuity  x-velocity  y-velocity  z-velocity      energy           k     epsilon     time/iter
<aaslistener> 
   455  2.3384e-01  1.5352e-03  1.5569e-03  1.0205e-03  2.1530e-05  3.7669e-03  1.2462e-02  0:00:42   45
<aaslistener> 
   456  2.2520e-01  1.5138e-03  1.4625e-03  9.9450e-04  2.1231e-05  3.6153e-03  1.1535e-02  0:00:33   44
<aaslistener> 
   457  2.1668e-01  1.4905e-03  1.3737e-03  9.7129e-04  2.0896e-05  3.4862e-03  1.0709e-02  0:00:34   43
<aaslistener> 
   458  2.0778e-01  1.4621e-03  1.2980e-03  9.4721e-04  2.0487e-05  3.3612e-03  1.0046e-02  0:00:35   42
<aaslistener> 
   459  1.9935e-01  1.4226e-03  1.2387e-03  9.2684e-04  2.0016e-05  3.2422e-03  9.5013e-03  0:00:36   41
<aaslistener> 
   460  1.9323e-01  1.3752e-03  1.1936e-03  9.1207e-04  1.9480e-05  3.1262e-03  9.1860e-03  0:00:36   40
<aaslistener> 
   461  1.8744e-01  1.3244e-03  1.1554e-03  8.9410e-04  1.8884e-05  3.0077e-03  8.9124e-03  0:00:28   39
<aaslistener> 
   462  1.8315e-01  1.2710e-03  1.1221e-03  8.7208e-04  1.8286e-05  2.8770e-03  8.6772e-03  0:00:29   38
<aaslistener> 
   463  1.7920e-01  1.2168e-03  1.0938e-03  8.4301e-04  1.7643e-05  2.7491e-03  8.4056e-03  0:00:30   37
<aaslistener> 
   464  1.7473e-01  1.1657e-03  1.0783e-03  8.0891e-04  1.7017e-05  2.6373e-03  8.0915e-03  0:00:31   36
<aaslistener> 
   465  1.6933e-01  1.1194e-03  1.0763e-03  7.7205e-04  1.6492e-05  2.5516e-03  7.8211e-03  0:00:31   35

  iter  continuity  x-velocity  y-velocity  z-velocity      energy           k     epsilon     time/iter
<aaslistener> 
   466  1.6349e-01  1.0793e-03  1.0853e-03  7.3742e-04  1.5996e-05  2.4929e-03  7.7267e-03  0:00:24   34
<aaslistener> 
   467  1.5822e-01  1.0438e-03  1.1029e-03  7.1036e-04  1.5541e-05  2.4622e-03  7.7406e-03  0:00:25   33
<aaslistener> 
   468  1.5511e-01  1.0200e-03  1.1264e-03  6.9559e-04  1.5179e-05  2.4485e-03  7.8777e-03  0:00:26   32
<aaslistener> 
   469  1.5452e-01  1.0117e-03  1.1495e-03  6.9806e-04  1.4859e-05  2.4483e-03  8.0634e-03  0:00:26   31
<aaslistener> 
   470  1.5710e-01  1.0188e-03  1.1706e-03  7.1191e-04  1.4592e-05  2.4560e-03  8.2174e-03  0:00:26   30
<aaslistener> 
   471  1.5991e-01  1.0371e-03  1.1810e-03  7.2962e-04  1.4365e-05  2.4574e-03  8.2966e-03  0:00:20   29
<aaslistener> 
   472  1.6225e-01  1.0635e-03  1.1783e-03  7.4788e-04  1.4317e-05  2.4423e-03  8.2269e-03  0:00:21   28
<aaslistener> 
   473  1.6444e-01  1.1021e-03  1.1653e-03  7.6928e-04  1.4396e-05  2.4424e-03  8.0319e-03  0:00:22   27
<aaslistener> 
   474  1.6461e-01  1.1513e-03  1.1457e-03  7.9006e-04  1.4502e-05  2.4581e-03  7.8123e-03  0:00:22   26
<aaslistener> 
   475  1.6538e-01  1.2059e-03  1.1274e-03  8.0678e-04  1.4635e-05  2.4929e-03  7.6687e-03  0:00:22   25
<aaslistener> 
   476  1.6775e-01  1.2530e-03  1.1163e-03  8.1605e-04  1.4672e-05  2.5229e-03  7.5163e-03  0:00:22   24

  iter  continuity  x-velocity  y-velocity  z-velocity      energy           k     epsilon     time/iter
<aaslistener> 
   477  1.7040e-01  1.2897e-03  1.1047e-03  8.1700e-04  1.4585e-05  2.5583e-03  7.3400e-03  0:00:17   23
<aaslistener> 
   478  1.7298e-01  1.3110e-03  1.0920e-03  8.0778e-04  1.4380e-05  2.5640e-03  7.0529e-03  0:00:17   22
<aaslistener> 
   479  1.7406e-01  1.3139e-03  1.0769e-03  7.9298e-04  1.4087e-05  2.5668e-03  6.7718e-03  0:00:17   21
<aaslistener> 
   480  1.7397e-01  1.3004e-03  1.0609e-03  7.7865e-04  1.3784e-05  2.5519e-03  6.5068e-03  0:00:17   20
<aaslistener> 
   481  1.7246e-01  1.2742e-03  1.0427e-03  7.6274e-04  1.3529e-05  2.5089e-03  6.2244e-03  0:00:17   19
<aaslistener> 
   482  1.6925e-01  1.2414e-03  1.0236e-03  7.4374e-04  1.3337e-05  2.4653e-03  6.1202e-03  0:00:16   18
<aaslistener> 
   483  1.6549e-01  1.2038e-03  1.0068e-03  7.2681e-04  1.3235e-05  2.4017e-03  6.0585e-03  0:00:12   17
<aaslistener> 
   484  1.6150e-01  1.1596e-03  9.9399e-04  7.0976e-04  1.3149e-05  2.3159e-03  5.9989e-03  0:00:13   16
<aaslistener> 
   485  1.5773e-01  1.1202e-03  9.8242e-04  6.9531e-04  1.3137e-05  2.2544e-03  5.9302e-03  0:00:12   15
<aaslistener> 
   486  1.5470e-01  1.0799e-03  9.7353e-04  6.8568e-04  1.3094e-05  2.2167e-03  5.9467e-03  0:00:12   14
<aaslistener> 
   487  1.5215e-01  1.0380e-03  9.6729e-04  6.8115e-04  1.3048e-05  2.2098e-03  6.0613e-03  0:00:12   13

  iter  continuity  x-velocity  y-velocity  z-velocity      energy           k     epsilon     time/iter
<aaslistener> 
   488  1.5053e-01  9.9901e-04  9.6290e-04  6.7903e-04  1.2944e-05  2.2088e-03  6.1874e-03  0:00:09   12
<aaslistener> 
   489  1.4930e-01  9.6850e-04  9.6042e-04  6.7972e-04  1.2783e-05  2.2112e-03  6.3509e-03  0:00:08   11
<aaslistener> 
   490  1.4906e-01  9.4381e-04  9.6034e-04  6.8185e-04  1.2651e-05  2.2145e-03  6.4803e-03  0:00:08   10
<aaslistener> 
   491  1.4944e-01  9.2802e-04  9.6182e-04  6.8410e-04  1.2464e-05  2.2127e-03  6.5214e-03  0:00:08    9
<aaslistener> 
   492  1.5062e-01  9.2269e-04  9.6359e-04  6.8818e-04  1.2273e-05  2.2050e-03  6.4892e-03  0:00:07    8
<aaslistener> 
   493  1.5148e-01  9.2554e-04  9.6608e-04  6.9439e-04  1.2095e-05  2.1912e-03  6.3795e-03  0:00:05    7
<aaslistener> 
   494  1.5237e-01  9.3471e-04  9.7097e-04  7.0346e-04  1.1928e-05  2.1813e-03  6.2485e-03  0:00:05    6
<aaslistener> 
   495  1.5369e-01  9.4964e-04  9.8068e-04  7.1561e-04  1.1867e-05  2.1816e-03  6.1400e-03  0:00:04    5
<aaslistener> 
   496  1.5544e-01  9.6817e-04  9.9395e-04  7.2764e-04  1.1872e-05  2.1987e-03  6.0918e-03  0:00:03    4
<aaslistener> 
   497  1.5824e-01  9.8990e-04  1.0069e-03  7.4209e-04  1.1893e-05  2.2260e-03  6.1288e-03  0:00:03    3
<aaslistener> 
   498  1.6159e-01  1.0153e-03  1.0195e-03  7.5797e-04  1.1901e-05  2.2579e-03  6.2359e-03  0:00:02    2

  iter  continuity  x-velocity  y-velocity  z-velocity      energy           k     epsilon     time/iter
<aaslistener> 
   499  1.6568e-01  1.0437e-03  1.0340e-03  7.7308e-04  1.1906e-05  2.2951e-03  6.3522e-03  0:00:01    1
<aaslistener> 
   500  1.6952e-01  1.0744e-03  1.0516e-03  7.8550e-04  1.1887e-05  2.3237e-03  6.4801e-03  0:00:00    0
/define/boundary/velocity-inlet (inlet)
inlet no no yes yes no 0.8333333457509677 no 0 no 303.15 no no yes 5 10/solve/initialize/compute-defaults/all-zonessolve iterate 100<aaslistener> 

  iter  continuity  x-velocity  y-velocity  z-velocity      energy           k     epsilon     time/iter
<aaslistener> 
   500  1.6952e-01  1.0744e-03  1.0516e-03  7.8550e-04  1.1887e-05  2.3237e-03  6.4801e-03  0:01:18  100
<aaslistener> 
   501  1.7434e-01  1.1040e-03  1.0725e-03  7.9536e-04  2.6478e-04  2.3454e-03  6.5898e-03  0:01:21   99
<aaslistener> 
   502  1.7845e-01  1.1300e-03  1.0958e-03  8.0236e-04  2.4463e-04  2.3610e-03  6.6590e-03  0:01:24   98
<aaslistener> 
   503  1.8180e-01  1.1549e-03  1.1189e-03  8.0829e-04  2.1732e-04  2.3674e-03  6.7121e-03  0:01:26   97
<aaslistener> 
   504  1.8528e-01  1.1750e-03  1.1397e-03  8.1425e-04  1.8434e-04  2.3596e-03  6.7226e-03  0:01:27   96
<aaslistener> 
   505  1.8826e-01  1.1912e-03  1.1578e-03  8.1915e-04  1.5109e-04  2.3481e-03  6.7271e-03  0:01:09   95
<aaslistener> 
   506  1.8941e-01  1.2046e-03  1.1732e-03  8.2333e-04  1.2205e-04  2.3417e-03  6.7430e-03  0:01:13   94
<aaslistener> 
   507  1.9047e-01  1.2155e-03  1.1857e-03  8.2550e-04  9.8841e-05  2.3490e-03  6.8089e-03  0:01:17   93
<aaslistener> 
   508  1.9065e-01  1.2247e-03  1.1966e-03  8.2623e-04  8.1597e-05  2.3765e-03  6.9742e-03  0:01:19   92
<aaslistener> 
   509  1.9109e-01  1.2325e-03  1.2083e-03  8.2553e-04  6.9949e-05  2.4200e-03  7.2119e-03  0:01:21   91
<aaslistener> 
   510  1.9158e-01  1.2377e-03  1.2216e-03  8.2422e-04  6.2323e-05  2.4773e-03  7.5162e-03  0:01:04   90

  iter  continuity  x-velocity  y-velocity  z-velocity      energy           k     epsilon     time/iter
<aaslistener> 
   511  1.9112e-01  1.2437e-03  1.2378e-03  8.2448e-04  5.7561e-05  2.5482e-03  7.8773e-03  0:01:08   89
<aaslistener> 
   512  1.9067e-01  1.2532e-03  1.2608e-03  8.2884e-04  5.4677e-05  2.6381e-03  8.2917e-03  0:01:12   88
<aaslistener> 
   513  1.9201e-01  1.2616e-03  1.2900e-03  8.4052e-04  5.3083e-05  2.7259e-03  8.7073e-03  0:01:14   87
<aaslistener> 
   514  1.9347e-01  1.2695e-03  1.3233e-03  8.5511e-04  5.2248e-05  2.7986e-03  9.0312e-03  0:01:16   86
<aaslistener> 
   515  1.9448e-01  1.2769e-03  1.3618e-03  8.7553e-04  5.1620e-05  2.8648e-03  9.3446e-03  0:01:17   85
<aaslistener> 
   516  1.9573e-01  1.2843e-03  1.4008e-03  9.0102e-04  5.0975e-05  2.9114e-03  9.5991e-03  0:01:01   84
<aaslistener> 
   517  1.9762e-01  1.2929e-03  1.4358e-03  9.2360e-04  5.0193e-05  2.9237e-03  9.6960e-03  0:01:05   83
<aaslistener> 
   518  2.0146e-01  1.3021e-03  1.4633e-03  9.4310e-04  4.9356e-05  2.9121e-03  9.6718e-03  0:01:08   82
<aaslistener> 
   519  2.0606e-01  1.3123e-03  1.4797e-03  9.6323e-04  4.8453e-05  2.8833e-03  9.6057e-03  0:01:10   81
<aaslistener> 
   520  2.1088e-01  1.3204e-03  1.4856e-03  9.8283e-04  4.7413e-05  2.8352e-03  9.4566e-03  0:01:11   80
<aaslistener> 
   521  2.1419e-01  1.3245e-03  1.4813e-03  9.9795e-04  4.6333e-05  2.7692e-03  9.2275e-03  0:00:56   79

  iter  continuity  x-velocity  y-velocity  z-velocity      energy           k     epsilon     time/iter
<aaslistener> 
   522  2.1672e-01  1.3248e-03  1.4666e-03  1.0069e-03  4.5219e-05  2.6968e-03  8.9307e-03  0:01:00   78
<aaslistener> 
   523  2.1666e-01  1.3183e-03  1.4417e-03  1.0088e-03  4.4123e-05  2.6187e-03  8.6093e-03  0:01:03   77
<aaslistener> 
   524  2.1495e-01  1.3069e-03  1.4117e-03  1.0021e-03  4.3028e-05  2.5412e-03  8.3029e-03  0:01:05   76
<aaslistener> 
   525  2.1178e-01  1.2888e-03  1.3744e-03  9.8981e-04  4.1944e-05  2.4700e-03  8.0832e-03  0:01:06   75
<aaslistener> 
   526  2.0923e-01  1.2637e-03  1.3353e-03  9.7642e-04  4.0846e-05  2.3999e-03  7.8947e-03  0:01:07   74
<aaslistener> 
   527  2.0548e-01  1.2337e-03  1.2921e-03  9.6000e-04  3.9697e-05  2.3340e-03  7.6731e-03  0:00:53   73
<aaslistener> 
   528  2.0163e-01  1.2007e-03  1.2501e-03  9.4042e-04  3.8637e-05  2.2750e-03  7.4175e-03  0:00:56   72
<aaslistener> 
   529  1.9715e-01  1.1678e-03  1.2128e-03  9.1897e-04  3.7722e-05  2.2380e-03  7.1545e-03  0:00:58   71
<aaslistener> 
   530  1.9282e-01  1.1414e-03  1.1838e-03  8.9883e-04  3.7065e-05  2.2215e-03  6.9336e-03  0:01:00   70
<aaslistener> 
   531  1.8838e-01  1.1267e-03  1.1609e-03  8.8051e-04  3.6506e-05  2.2151e-03  6.7462e-03  0:01:01   69
<aaslistener> 
   532  1.8534e-01  1.1239e-03  1.1420e-03  8.6496e-04  3.5944e-05  2.2134e-03  6.5888e-03  0:01:02   68

  iter  continuity  x-velocity  y-velocity  z-velocity      energy           k     epsilon     time/iter
<aaslistener> 
   533  1.8379e-01  1.1273e-03  1.1272e-03  8.5369e-04  3.5331e-05  2.2069e-03  6.4514e-03  0:00:49   67
<aaslistener> 
   534  1.8228e-01  1.1330e-03  1.1133e-03  8.4498e-04  3.4649e-05  2.1990e-03  6.3232e-03  0:00:52   66
<aaslistener> 
   535  1.8171e-01  1.1410e-03  1.0991e-03  8.3871e-04  3.3894e-05  2.1796e-03  6.1797e-03  0:00:54   65
<aaslistener> 
   536  1.8071e-01  1.1454e-03  1.0856e-03  8.3544e-04  3.2965e-05  2.1482e-03  6.0223e-03  0:00:55   64
<aaslistener> 
   537  1.7990e-01  1.1469e-03  1.0723e-03  8.3267e-04  3.1905e-05  2.1089e-03  5.8567e-03  0:00:56   63
<aaslistener> 
   538  1.7958e-01  1.1456e-03  1.0617e-03  8.3056e-04  3.0799e-05  2.0696e-03  5.6862e-03  0:00:44   62
<aaslistener> 
   539  1.7928e-01  1.1430e-03  1.0526e-03  8.2929e-04  2.9695e-05  2.0408e-03  5.5851e-03  0:00:47   61
<aaslistener> 
   540  1.7795e-01  1.1406e-03  1.0482e-03  8.2831e-04  2.8613e-05  2.0331e-03  5.6404e-03  0:00:49   60
<aaslistener> 
   541  1.7751e-01  1.1406e-03  1.0515e-03  8.2767e-04  2.7657e-05  2.0387e-03  5.7626e-03  0:00:50   59
<aaslistener> 
   542  1.7632e-01  1.1408e-03  1.0608e-03  8.2826e-04  2.6820e-05  2.0617e-03  5.9063e-03  0:00:51   58
<aaslistener> 
   543  1.7454e-01  1.1419e-03  1.0743e-03  8.2676e-04  2.6172e-05  2.1062e-03  6.0977e-03  0:00:40   57

  iter  continuity  x-velocity  y-velocity  z-velocity      energy           k     epsilon     time/iter
<aaslistener> 
   544  1.7400e-01  1.1425e-03  1.0936e-03  8.2642e-04  2.5647e-05  2.1657e-03  6.3377e-03  0:00:43   56
<aaslistener> 
   545  1.7362e-01  1.1428e-03  1.1161e-03  8.2559e-04  2.5198e-05  2.2347e-03  6.6088e-03  0:00:45   55
<aaslistener> 
   546  1.7335e-01  1.1441e-03  1.1418e-03  8.2582e-04  2.4792e-05  2.3114e-03  6.9052e-03  0:00:46   54
<aaslistener> 
   547  1.7404e-01  1.1474e-03  1.1710e-03  8.2903e-04  2.4442e-05  2.3936e-03  7.2401e-03  0:00:47   53
<aaslistener> 
   548  1.7448e-01  1.1544e-03  1.2035e-03  8.3425e-04  2.4170e-05  2.4795e-03  7.6192e-03  0:00:37   52
<aaslistener> 
   549  1.7505e-01  1.1678e-03  1.2413e-03  8.4270e-04  2.3916e-05  2.5712e-03  8.0094e-03  0:00:39   51
<aaslistener> 
[...]
<aaslistener> 
   851  2.0920e-01  1.6797e-03  1.9428e-03  1.0652e-03  2.5416e-05  4.2459e-03  1.2916e-02  0:00:42   49
<aaslistener> 
   852  2.1366e-01  1.7256e-03  1.9798e-03  1.1095e-03  2.5040e-05  4.4210e-03  1.3547e-02  0:00:43   48
<aaslistener> 
   853  2.1882e-01  1.7690e-03  2.0050e-03  1.1485e-03  2.4632e-05  4.5432e-03  1.3998e-02  0:00:33   47
<aaslistener> 
   854  2.2335e-01  1.8002e-03  2.0132e-03  1.1779e-03  2.4215e-05  4.5894e-03  1.4169e-02  0:00:35   46

  iter  continuity  x-velocity  y-velocity  z-velocity      energy           k     epsilon     time/iter
<aaslistener> 
   855  2.2704e-01  1.8135e-03  1.9982e-03  1.1938e-03  2.3736e-05  4.5325e-03  1.3959e-02  0:00:37   45
<aaslistener> 
   856  2.2917e-01  1.8022e-03  1.9591e-03  1.1977e-03  2.3162e-05  4.3993e-03  1.3554e-02  0:00:37   44
<aaslistener> 
   857  2.3005e-01  1.7699e-03  1.9047e-03  1.1905e-03  2.2456e-05  4.2113e-03  1.3070e-02  0:00:38   43
<aaslistener> 
   858  2.2794e-01  1.7367e-03  1.8432e-03  1.1757e-03  2.1745e-05  3.9804e-03  1.2399e-02  0:00:30   42
<aaslistener> 
   859  2.2498e-01  1.7008e-03  1.7784e-03  1.1538e-03  2.1029e-05  3.7604e-03  1.1867e-02  0:00:31   41
<aaslistener> 
   860  2.2205e-01  1.6656e-03  1.7179e-03  1.1325e-03  2.0305e-05  3.5904e-03  1.1518e-02  0:00:32   40
<aaslistener> 
   861  2.1941e-01  1.6392e-03  1.6576e-03  1.1058e-03  1.9606e-05  3.4581e-03  1.1149e-02  0:00:33   39
<aaslistener> 
   862  2.1726e-01  1.6202e-03  1.6078e-03  1.0793e-03  1.8867e-05  3.3463e-03  1.0836e-02  0:00:33   38
<aaslistener> 
   863  2.1426e-01  1.5908e-03  1.5627e-03  1.0492e-03  1.8214e-05  3.2482e-03  1.0521e-02  0:00:33   37
<aaslistener> 
   864  2.0992e-01  1.5493e-03  1.5167e-03  1.0234e-03  1.7572e-05  3.1353e-03  1.0127e-02  0:00:26   36
<aaslistener> 
   865  2.0493e-01  1.4999e-03  1.4745e-03  9.9049e-04  1.6954e-05  3.0443e-03  9.7792e-03  0:00:27   35

  iter  continuity  x-velocity  y-velocity  z-velocity      energy           k     epsilon     time/iter
<aaslistener> 
   866  1.9998e-01  1.4449e-03  1.4407e-03  9.6216e-04  1.6375e-05  2.9794e-03  9.5885e-03  0:00:28   34
<aaslistener> 
   867  1.9524e-01  1.3944e-03  1.4064e-03  9.4175e-04  1.5841e-05  2.9412e-03  9.5858e-03  0:00:28   33
<aaslistener> 
   868  1.9070e-01  1.3581e-03  1.3811e-03  9.2708e-04  1.5242e-05  2.9277e-03  9.6337e-03  0:00:28   32
<aaslistener> 
   869  1.8661e-01  1.3320e-03  1.3619e-03  9.1914e-04  1.4684e-05  2.9358e-03  9.7353e-03  0:00:22   31
<aaslistener> 
   870  1.8379e-01  1.3184e-03  1.3443e-03  9.1881e-04  1.4207e-05  2.9666e-03  9.7821e-03  0:00:23   30
<aaslistener> 
   871  1.8172e-01  1.3110e-03  1.3230e-03  9.2340e-04  1.3871e-05  3.0053e-03  9.7585e-03  0:00:24   29
<aaslistener> 
   872  1.8120e-01  1.3163e-03  1.3005e-03  9.3230e-04  1.3648e-05  3.0626e-03  9.6949e-03  0:00:24   28
<aaslistener> 
   873  1.8263e-01  1.3316e-03  1.2753e-03  9.4505e-04  1.3541e-05  3.1508e-03  9.6633e-03  0:00:24   27
<aaslistener> 
   874  1.8442e-01  1.3503e-03  1.2507e-03  9.5818e-04  1.3661e-05  3.2492e-03  9.7044e-03  0:00:24   26
<aaslistener> 
   875  1.8680e-01  1.3777e-03  1.2420e-03  9.7112e-04  1.3870e-05  3.3590e-03  9.7651e-03  0:00:18   25
<aaslistener> 
   876  1.8991e-01  1.4119e-03  1.2516e-03  9.8510e-04  1.4107e-05  3.4735e-03  1.0051e-02  0:00:19   24

  iter  continuity  x-velocity  y-velocity  z-velocity      energy           k     epsilon     time/iter
<aaslistener> 
   877  1.9390e-01  1.4434e-03  1.2687e-03  1.0008e-03  1.4304e-05  3.5797e-03  1.0476e-02  0:00:19   23
<aaslistener> 
   878  1.9686e-01  1.4678e-03  1.2865e-03  1.0141e-03  1.4383e-05  3.6390e-03  1.0859e-02  0:00:19   22
<aaslistener> 
   879  1.9823e-01  1.4741e-03  1.3049e-03  1.0215e-03  1.4274e-05  3.6341e-03  1.0994e-02  0:00:19   21
<aaslistener> 
   880  1.9840e-01  1.4635e-03  1.3154e-03  1.0254e-03  1.4023e-05  3.5830e-03  1.0995e-02  0:00:18   20
<aaslistener> 
   881  1.9935e-01  1.4423e-03  1.3144e-03  1.0207e-03  1.3632e-05  3.5054e-03  1.0899e-02  0:00:14   19
<aaslistener> 
   882  1.9975e-01  1.4070e-03  1.3059e-03  1.0058e-03  1.3116e-05  3.3912e-03  1.0574e-02  0:00:14   18
<aaslistener> 
   883  1.9794e-01  1.3586e-03  1.2824e-03  9.7503e-04  1.2558e-05  3.2285e-03  1.0031e-02  0:00:14   17
<aaslistener> 
   884  1.9429e-01  1.3060e-03  1.2498e-03  9.4269e-04  1.2146e-05  3.0364e-03  9.3614e-03  0:00:14   16
<aaslistener> 
   885  1.8920e-01  1.2573e-03  1.2061e-03  9.0795e-04  1.1822e-05  2.8503e-03  8.6205e-03  0:00:13   15
<aaslistener> 
   886  1.8376e-01  1.2220e-03  1.1546e-03  8.7606e-04  1.1633e-05  2.7053e-03  8.0274e-03  0:00:10   14
<aaslistener> 
   887  1.7747e-01  1.2013e-03  1.1045e-03  8.4430e-04  1.1493e-05  2.5993e-03  7.6630e-03  0:00:10   13

  iter  continuity  x-velocity  y-velocity  z-velocity      energy           k     epsilon     time/iter
<aaslistener> 
   888  1.7239e-01  1.1912e-03  1.0595e-03  8.1888e-04  1.1424e-05  2.5256e-03  7.4206e-03  0:00:10   12
<aaslistener> 
   889  1.6796e-01  1.1877e-03  1.0287e-03  8.0236e-04  1.1347e-05  2.4936e-03  7.2563e-03  0:00:09   11
<aaslistener> 
   890  1.6463e-01  1.1857e-03  1.0187e-03  7.8671e-04  1.1276e-05  2.4940e-03  7.1924e-03  0:00:09   10
<aaslistener> 
   891  1.6297e-01  1.1870e-03  1.0226e-03  7.7630e-04  1.1181e-05  2.5059e-03  7.1934e-03  0:00:06    9
<aaslistener> 
   892  1.6181e-01  1.1884e-03  1.0404e-03  7.7198e-04  1.1087e-05  2.5229e-03  7.2366e-03  0:00:06    8
<aaslistener> 
   893  1.6104e-01  1.1861e-03  1.0697e-03  7.7334e-04  1.0998e-05  2.5404e-03  7.3413e-03  0:00:06    7
<aaslistener> 
   894  1.6185e-01  1.1797e-03  1.1019e-03  7.8057e-04  1.0885e-05  2.5581e-03  7.4828e-03  0:00:05    6
<aaslistener> 
   895  1.6379e-01  1.1674e-03  1.1311e-03  7.8639e-04  1.0753e-05  2.5696e-03  7.6316e-03  0:00:04    5
<aaslistener> 
   896  1.6608e-01  1.1519e-03  1.1527e-03  7.8944e-04  1.0598e-05  2.5691e-03  7.7533e-03  0:00:04    4
<aaslistener> 
   897  1.6860e-01  1.1339e-03  1.1617e-03  7.8720e-04  1.0394e-05  2.5456e-03  7.8094e-03  0:00:03    3
<aaslistener> 
   898  1.7037e-01  1.1108e-03  1.1547e-03  7.7637e-04  1.0142e-05  2.4987e-03  7.7863e-03  0:00:01    2

  iter  continuity  x-velocity  y-velocity  z-velocity      energy           k     epsilon     time/iter
<aaslistener> 
   899  1.7079e-01  1.0842e-03  1.1351e-03  7.5741e-04  9.8171e-06  2.4261e-03  7.6480e-03  0:00:01    1
<aaslistener> 
   900  1.6926e-01  1.0552e-03  1.1066e-03  7.3463e-04  9.4601e-06  2.3339e-03  7.3989e-03  0:00:00    0
/define/boundary/velocity-inlet (inlet)
inlet no no yes yes no 0.8333333457509677 no 0 no 303.15 no no yes 5 10/solve/initialize/compute-defaults/all-zonessolve iterate 100<aaslistener> 

  iter  continuity  x-velocity  y-velocity  z-velocity      energy           k     epsilon     time/iter
<aaslistener> 
   900  1.6926e-01  1.0552e-03  1.1066e-03  7.3463e-04  9.4601e-06  2.3339e-03  7.3989e-03  0:01:23  100
<aaslistener> 
   901  1.6692e-01  1.0219e-03  1.0693e-03  7.0837e-04  2.6202e-04  2.2225e-03  7.0690e-03  0:01:26   99
<aaslistener> 
   902  1.6411e-01  9.8759e-04  1.0258e-03  6.8266e-04  2.4275e-04  2.1043e-03  6.6861e-03  0:01:27   98
<aaslistener> 
   903  1.6087e-01  9.5200e-04  9.8224e-04  6.6017e-04  2.1671e-04  1.9876e-03  6.3031e-03  0:01:09   97
<aaslistener> 
   904  1.5695e-01  9.1684e-04  9.4246e-04  6.4113e-04  1.8499e-04  1.8841e-03  5.9431e-03  0:01:14   96
<aaslistener> 
   905  1.5301e-01  8.8627e-04  9.1005e-04  6.2865e-04  1.5267e-04  1.7992e-03  5.6251e-03  0:01:18   95
<aaslistener> 
   906  1.4852e-01  8.6617e-04  8.8389e-04  6.2305e-04  1.2393e-04  1.7375e-03  5.3487e-03  0:01:20   94
<aaslistener> 
   907  1.4473e-01  8.5659e-04  8.6628e-04  6.2282e-04  1.0058e-04  1.7057e-03  5.1435e-03  0:01:22   93
<aaslistener> 
   908  1.4231e-01  8.5781e-04  8.5332e-04  6.2748e-04  8.2796e-05  1.6939e-03  5.0004e-03  0:01:05   92
<aaslistener> 
   909  1.4135e-01  8.6944e-04  8.4582e-04  6.3648e-04  7.0323e-05  1.6980e-03  4.9207e-03  0:01:10   91
<aaslistener> 
   910  1.4155e-01  8.8966e-04  8.4377e-04  6.4724e-04  6.2137e-05  1.7237e-03  4.9316e-03  0:01:13   90

  iter  continuity  x-velocity  y-velocity  z-velocity      energy           k     epsilon     time/iter
<aaslistener> 
   911  1.4296e-01  9.1359e-04  8.4784e-04  6.5921e-04  5.6983e-05  1.7629e-03  4.9970e-03  0:01:16   89
<aaslistener> 
   912  1.4456e-01  9.3903e-04  8.5706e-04  6.7196e-04  5.3882e-05  1.8073e-03  5.0779e-03  0:01:17   88
<aaslistener> 
   913  1.4658e-01  9.6434e-04  8.7427e-04  6.8630e-04  5.2041e-05  1.8569e-03  5.1904e-03  0:01:01   87
<aaslistener> 
   914  1.4899e-01  9.8884e-04  8.9776e-04  7.0089e-04  5.0898e-05  1.9109e-03  5.3456e-03  0:01:06   86
<aaslistener> 
   915  1.5190e-01  1.0126e-03  9.2747e-04  7.1560e-04  5.0069e-05  1.9585e-03  5.4988e-03  0:01:09   85
<aaslistener> 
   916  1.5566e-01  1.0366e-03  9.6244e-04  7.3068e-04  4.9313e-05  1.9993e-03  5.6455e-03  0:01:11   84
<aaslistener> 
   917  1.5895e-01  1.0585e-03  9.9887e-04  7.4605e-04  4.8503e-05  2.0368e-03  5.7932e-03  0:01:13   83
<aaslistener> 
   918  1.6289e-01  1.0778e-03  1.0373e-03  7.6303e-04  4.7570e-05  2.0646e-03  5.9196e-03  0:01:14   82
<aaslistener> 
   919  1.6639e-01  1.0961e-03  1.0742e-03  7.8014e-04  4.6633e-05  2.0830e-03  6.0299e-03  0:00:59   81
<aaslistener> 
   920  1.7009e-01  1.1144e-03  1.1090e-03  7.9944e-04  4.5644e-05  2.0952e-03  6.1141e-03  0:01:02   80
<aaslistener> 
   921  1.7407e-01  1.1292e-03  1.1378e-03  8.1916e-04  4.4623e-05  2.1013e-03  6.1648e-03  0:01:05   79

  iter  continuity  x-velocity  y-velocity  z-velocity      energy           k     epsilon     time/iter
<aaslistener> 
   922  1.7802e-01  1.1475e-03  1.1585e-03  8.3582e-04  4.3632e-05  2.1016e-03  6.1986e-03  0:01:07   78
<aaslistener> 
   923  1.8143e-01  1.1620e-03  1.1720e-03  8.5026e-04  4.2588e-05  2.0988e-03  6.2047e-03  0:01:08   77
<aaslistener> 
   924  1.8400e-01  1.1738e-03  1.1795e-03  8.6150e-04  4.1499e-05  2.0940e-03  6.2098e-03  0:00:54   76
<aaslistener> 
   925  1.8609e-01  1.1858e-03  1.1829e-03  8.6957e-04  4.0405e-05  2.0878e-03  6.1995e-03  0:00:58   75
<aaslistener> 
   926  1.8722e-01  1.1936e-03  1.1837e-03  8.7110e-04  3.9295e-05  2.0924e-03  6.1960e-03  0:01:00   74
<aaslistener> 
   927  1.8752e-01  1.1965e-03  1.1869e-03  8.6777e-04  3.8252e-05  2.1317e-03  6.2516e-03  0:01:02   73
<aaslistener> 
   928  1.8715e-01  1.2011e-03  1.1990e-03  8.6466e-04  3.7427e-05  2.2085e-03  6.4814e-03  0:01:03   72
<aaslistener> 
   929  1.8722e-01  1.2098e-03  1.2233e-03  8.6371e-04  3.6834e-05  2.3182e-03  6.8199e-03  0:01:04   71
<aaslistener> 
   930  1.8800e-01  1.2284e-03  1.2582e-03  8.7051e-04  3.6436e-05  2.4582e-03  7.2898e-03  0:00:51   70
<aaslistener> 
   931  1.8971e-01  1.2625e-03  1.3036e-03  8.8374e-04  3.6177e-05  2.6153e-03  7.8606e-03  0:00:54   69
<aaslistener> 
   932  1.9412e-01  1.3031e-03  1.3566e-03  9.0243e-04  3.6037e-05  2.7768e-03  8.5077e-03  0:00:56   68

  iter  continuity  x-velocity  y-velocity  z-velocity      energy           k     epsilon     time/iter
<aaslistener> 
   933  2.0033e-01  1.3477e-03  1.4118e-03  9.2661e-04  3.5966e-05  2.9433e-03  9.2331e-03  0:00:58   67
<aaslistener> 
   934  2.0690e-01  1.3946e-03  1.4611e-03  9.5473e-04  3.5890e-05  3.1047e-03  9.9397e-03  0:00:59   66
<aaslistener> 
   935  2.1435e-01  1.4434e-03  1.5036e-03  9.8613e-04  3.5856e-05  3.2502e-03  1.0599e-02  0:00:46   65
<aaslistener> 
   936  2.2300e-01  1.4920e-03  1.5419e-03  1.0192e-03  3.5779e-05  3.3857e-03  1.1172e-02  0:00:49   64
<aaslistener> 
   937  2.2957e-01  1.5417e-03  1.5728e-03  1.0524e-03  3.5655e-05  3.5011e-03  1.1649e-02  0:00:51   63
<aaslistener> 
   938  2.3575e-01  1.5826e-03  1.6002e-03  1.0818e-03  3.5442e-05  3.5889e-03  1.2004e-02  0:00:53   62
<aaslistener> 
   939  2.4131e-01  1.6168e-03  1.6236e-03  1.1056e-03  3.5147e-05  3.6267e-03  1.2171e-02  0:00:54   61
<aaslistener> 
   940  2.4509e-01  1.6408e-03  1.6392e-03  1.1233e-03  3.4793e-05  3.6371e-03  1.2201e-02  0:00:54   60
<aaslistener> 
   941  2.4888e-01  1.6562e-03  1.6503e-03  1.1383e-03  3.4509e-05  3.6325e-03  1.2114e-02  0:00:43   59
<aaslistener> 
   942  2.5119e-01  1.6668e-03  1.6601e-03  1.1555e-03  3.4264e-05  3.6210e-03  1.1994e-02  0:00:45   58
<aaslistener> 
   943  2.5236e-01  1.6738e-03  1.6707e-03  1.1731e-03  3.3990e-05  3.6149e-03  1.1811e-02  0:00:47   57

  iter  continuity  x-velocity  y-velocity  z-velocity      energy           k     epsilon     time/iter
<aaslistener> 
   944  2.5273e-01  1.6795e-03  1.6822e-03  1.1888e-03  3.3583e-05  3.5988e-03  1.1577e-02  0:00:48   56
<aaslistener> 
   945  2.5361e-01  1.6756e-03  1.6917e-03  1.2022e-03  3.2942e-05  3.5660e-03  1.1319e-02  0:00:49   55
<aaslistener> 
   946  2.5345e-01  1.6585e-03  1.6996e-03  1.2100e-03  3.2074e-05  3.5053e-03  1.1074e-02  0:00:38   54
<aaslistener> 
   947  2.5247e-01  1.6276e-03  1.6972e-03  1.2088e-03  3.0988e-05  3.4306e-03  1.0867e-02  0:00:41   53
<aaslistener> 
   948  2.5253e-01  1.5862e-03  1.6858e-03  1.1971e-03  2.9789e-05  3.3421e-03  1.0674e-02  0:00:42   52
<aaslistener> 
   949  2.5199e-01  1.5383e-03  1.6642e-03  1.1760e-03  2.8445e-05  3.2322e-03  1.0431e-02  0:00:43   51
<aaslistener> 
   950  2.4916e-01  1.4887e-03  1.6285e-03  1.1419e-03  2.7093e-05  3.1077e-03  1.0098e-02  0:00:44   50
<aaslistener> 
   951  2.4568e-01  1.4369e-03  1.5828e-03  1.1024e-03  2.6031e-05  2.9962e-03  9.8348e-03  0:00:44   49
<aaslistener> 
   952  2.4157e-01  1.3955e-03  1.5343e-03  1.0649e-03  2.5143e-05  2.9164e-03  9.7198e-03  0:00:35   48
<aaslistener> 
   953  2.3538e-01  1.3704e-03  1.4922e-03  1.0316e-03  2.4373e-05  2.8887e-03  9.7212e-03  0:00:37   47
<aaslistener> 
   954  2.2741e-01  1.3511e-03  1.4583e-03  9.9841e-04  2.3765e-05  2.8864e-03  9.8980e-03  0:00:38   46

  iter  continuity  x-velocity  y-velocity  z-velocity      energy           k     epsilon     time/iter
<aaslistener> 
   955  2.1928e-01  1.3369e-03  1.4276e-03  9.6660e-04  2.3276e-05  2.8654e-03  9.8385e-03  0:00:39   45
<aaslistener> 
   956  2.1050e-01  1.3242e-03  1.3957e-03  9.3612e-04  2.2804e-05  2.8565e-03  9.6847e-03  0:00:39   44
<aaslistener> 
   957  2.0372e-01  1.3147e-03  1.3631e-03  9.0505e-04  2.2296e-05  2.8771e-03  9.7096e-03  0:00:31   43
<aaslistener> 
   958  1.9882e-01  1.3082e-03  1.3232e-03  8.7463e-04  2.1738e-05  2.9142e-03  9.8024e-03  0:00:32   42
<aaslistener> 
   959  1.9403e-01  1.3077e-03  1.2759e-03  8.4709e-04  2.1092e-05  2.9498e-03  9.8533e-03  0:00:33   41
<aaslistener> 
   960  1.8995e-01  1.3173e-03  1.2169e-03  8.2385e-04  2.0438e-05  2.9562e-03  9.8787e-03  0:00:34   40
<aaslistener> 
   961  1.8711e-01  1.3255e-03  1.1579e-03  8.0143e-04  1.9943e-05  2.9192e-03  9.7646e-03  0:00:34   39
<aaslistener> 
   962  1.8394e-01  1.3285e-03  1.1101e-03  7.8143e-04  1.9580e-05  2.8242e-03  9.4382e-03  0:00:27   38
<aaslistener> 
   963  1.7991e-01  1.3220e-03  1.0821e-03  7.6622e-04  1.9251e-05  2.7014e-03  9.0949e-03  0:00:28   37
<aaslistener> 
   964  1.7593e-01  1.3058e-03  1.0723e-03  7.5381e-04  1.8989e-05  2.5904e-03  8.7569e-03  0:00:29   36
<aaslistener> 
   965  1.7273e-01  1.2828e-03  1.0831e-03  7.4564e-04  1.8787e-05  2.5074e-03  8.5535e-03  0:00:30   35

  iter  continuity  x-velocity  y-velocity  z-velocity      energy           k     epsilon     time/iter
<aaslistener> 
   966  1.7107e-01  1.2539e-03  1.1032e-03  7.3954e-04  1.8588e-05  2.4710e-03  8.3620e-03  0:00:30   34
<aaslistener> 
   967  1.6942e-01  1.2263e-03  1.1254e-03  7.3713e-04  1.8377e-05  2.4751e-03  8.2558e-03  0:00:30   33
<aaslistener> 
   968  1.6977e-01  1.2068e-03  1.1483e-03  7.3896e-04  1.8257e-05  2.5045e-03  8.2440e-03  0:00:23   32
<aaslistener> 
   969  1.7231e-01  1.1989e-03  1.1669e-03  7.4442e-04  1.8314e-05  2.5359e-03  8.2877e-03  0:00:24   31
<aaslistener> 
   970  1.7427e-01  1.1999e-03  1.1818e-03  7.5351e-04  1.8422e-05  2.5539e-03  8.2788e-03  0:00:25   30
<aaslistener> 
   971  1.7644e-01  1.2052e-03  1.1966e-03  7.6826e-04  1.8629e-05  2.5686e-03  8.2067e-03  0:00:25   29
<aaslistener> 
   972  1.7873e-01  1.2127e-03  1.2138e-03  7.8402e-04  1.8681e-05  2.5758e-03  8.1854e-03  0:00:25   28
<aaslistener> 
   973  1.8077e-01  1.2201e-03  1.2304e-03  7.9809e-04  1.8671e-05  2.5830e-03  8.2028e-03  0:00:19   27
<aaslistener> 
   974  1.8391e-01  1.2245e-03  1.2433e-03  8.0977e-04  1.8582e-05  2.5715e-03  8.2180e-03  0:00:20   26
<aaslistener> 
   975  1.8619e-01  1.2269e-03  1.2519e-03  8.1664e-04  1.8387e-05  2.5685e-03  8.2685e-03  0:00:20   25
<aaslistener> 
   976  1.8898e-01  1.2355e-03  1.2590e-03  8.1789e-04  1.8275e-05  2.5917e-03  8.3045e-03  0:00:20   24

  iter  continuity  x-velocity  y-velocity  z-velocity      energy           k     epsilon     time/iter
<aaslistener> 
   977  1.9186e-01  1.2558e-03  1.2699e-03  8.2024e-04  1.8351e-05  2.6386e-03  8.4271e-03  0:00:20   23
<aaslistener> 
   978  1.9427e-01  1.2911e-03  1.2846e-03  8.2332e-04  1.8539e-05  2.7076e-03  8.5911e-03  0:00:20   22
<aaslistener> 
   979  1.9674e-01  1.3386e-03  1.3022e-03  8.2930e-04  1.8847e-05  2.8001e-03  8.7944e-03  0:00:15   21
<aaslistener> 
   980  1.9936e-01  1.3921e-03  1.3248e-03  8.4119e-04  1.9304e-05  2.9251e-03  9.0595e-03  0:00:16   20
<aaslistener> 
   981  2.0230e-01  1.4499e-03  1.3581e-03  8.6109e-04  1.9881e-05  3.0790e-03  9.4981e-03  0:00:16   19
<aaslistener> 
   982  2.0527e-01  1.5121e-03  1.4020e-03  8.8775e-04  2.0590e-05  3.2422e-03  1.0005e-02  0:00:15   18
<aaslistener> 
   983  2.1034e-01  1.5789e-03  1.4571e-03  9.2130e-04  2.1326e-05  3.4265e-03  1.0616e-02  0:00:15   17
<aaslistener> 
   984  2.1595e-01  1.6565e-03  1.5213e-03  9.6609e-04  2.2103e-05  3.6271e-03  1.1339e-02  0:00:15   16
<aaslistener> 
   985  2.2122e-01  1.7402e-03  1.5927e-03  1.0155e-03  2.2777e-05  3.8363e-03  1.2088e-02  0:00:11   15
<aaslistener> 
   986  2.2804e-01  1.8332e-03  1.6690e-03  1.0670e-03  2.3440e-05  4.0606e-03  1.2904e-02  0:00:11   14
<aaslistener> 
   987  2.3481e-01  1.9177e-03  1.7442e-03  1.1133e-03  2.3986e-05  4.2417e-03  1.3574e-02  0:00:11   13

  iter  continuity  x-velocity  y-velocity  z-velocity      energy           k     epsilon     time/iter
<aaslistener> 
   988  2.4136e-01  1.9805e-03  1.8117e-03  1.1543e-03  2.4545e-05  4.3828e-03  1.4083e-02  0:00:10   12
<aaslistener> 
   989  2.4605e-01  2.0086e-03  1.8638e-03  1.1826e-03  2.5013e-05  4.4175e-03  1.4181e-02  0:00:10   11
<aaslistener> 
   990  2.4887e-01  2.0147e-03  1.8984e-03  1.2009e-03  2.5217e-05  4.4378e-03  1.3957e-02  0:00:07   10
<aaslistener> 
   991  2.5121e-01  1.9933e-03  1.9326e-03  1.2088e-03  2.5288e-05  4.3424e-03  1.3556e-02  0:00:07    9
<aaslistener> 
   992  2.5215e-01  1.9604e-03  1.9567e-03  1.2068e-03  2.5348e-05  4.3076e-03  1.3220e-02  0:00:07    8
<aaslistener> 
   993  2.5475e-01  1.9370e-03  1.9924e-03  1.2003e-03  2.5242e-05  4.3182e-03  1.3259e-02  0:00:06    7
<aaslistener> 
   994  2.5833e-01  1.9088e-03  2.0216e-03  1.1933e-03  2.5035e-05  4.3354e-03  1.3486e-02  0:00:05    6
<aaslistener> 
   995  2.6074e-01  1.8785e-03  2.0393e-03  1.1980e-03  2.4839e-05  4.3344e-03  1.3701e-02  0:00:04    5
<aaslistener> 
   996  2.6382e-01  1.8460e-03  2.0480e-03  1.2135e-03  2.4619e-05  4.3376e-03  1.3890e-02  0:00:03    4
<aaslistener> 
   997  2.6723e-01  1.8195e-03  2.0441e-03  1.2343e-03  2.4409e-05  4.3104e-03  1.4006e-02  0:00:02    3
<aaslistener> 
   998  2.7000e-01  1.7986e-03  2.0212e-03  1.2531e-03  2.4389e-05  4.2345e-03  1.3775e-02  0:00:02    2

  iter  continuity  x-velocity  y-velocity  z-velocity      energy           k     epsilon     time/iter
<aaslistener> 
   999  2.7187e-01  1.7939e-03  1.9769e-03  1.2686e-03  2.4407e-05  4.1323e-03  1.3401e-02  0:00:01    1
<aaslistener> 
  1000  2.7287e-01  1.8009e-03  1.9197e-03  1.2746e-03  2.4355e-05  4.0256e-03  1.2911e-02  0:00:00    0
/define/boundary/velocity-inlet (inlet)
